<?xml version='1.0' encoding='utf-8'?>
<routes xmlns:xsi="http://www.w3.org/2001/XMLSchema-instance" xsi:noNamespaceSchemaLocation="http://sumo.dlr.de/xsd/routes_file.xsd">
    <vType id="myCourier" maxSpeed="160.00" vClass="delivery" />
    <vehicle id="courier_0" type="myCourier" depart="0.00">
        <route edges="-908811053 -908811054#0 24649912#4 4853258#6 4853258#7 790531107#0 790531107#3 220197238#0 220197238#2 496106634#0 496106634#1 129956810#0 129956810#3 271280744#0 271280744#1 496106668 139718842 4720029 496106672 4756529 118038623 1010741759 43973661 43973660 376037666 376037661 1117665609-AddedOnRampEdge 1117665609 1117665609-AddedOffRampEdge 376037667 744438927#0 969634995#0 969634995#3 805817020#0 805817020#2 805817020#3 -810173401#7 -810173401#5 -810173401#4 -810173401#3 -810173401#1 -4420545#16 -4420545#14 -4420545#13 -4420545#12 -4420545#11 -4420545#10 -4420545#7 -4420545#6 -4420545#5 -4420545#4 -4420545#3 -4420545#1 -4420545#0 -1118773473#3 -1118773473#2 -1118773473#1 43967197 1076682853#1 1076682853#2 1076682852#0 1076682852#1 131827878#1 131827878#3 131827878#4 131827878#6 -141272700#11 -141272700#8 -141272700#7 -141272700#5 -141272700#4 -141272700#3 -141272700#2 -141272700#1 -130001848#3 -130001848#1 -130001848#0 -130001850 -591393257 -64880303#13 -64880303#11 -64880303#10 -64880303#7 84130080#0 427089685#0 1013344908 1013344909 427089688#2 -427089694#6 -1013344909 -1013344908 -427089685#1 -84130080#2 -64880303#6 -64880303#4 -64880303#3 -74091395#6 -74091395#0 74086141#0 74086141#1 74086141#2 74086141#4 74086141#5 74086141#7 1089703231#1 72659322 130102720 278219899#0 487980010#0 321536730#0 321536730#3 321536730#6 321536730#9 -321536730#9 -321536730#8 -321536730#5 -321536730#2 -487980010#4 278219899#1 278219899#2 300040617#0 494418295#0 494418295#1 494418295#3 494418295#4 8073405#0 8073405#3 8073405#5 494418294#0 487979976#0 141221934 4680441 282920365#0 282920365#1 757830690#0 757830690#2 757830690#3 26083639#0 26083639#2 1042536057 -1042536057 -26083639#2 -26083639#1 757830690#4 757830690#5 757830690#6 757830690#7 757830690#9 4444448#0 4444448#2 4444448#4 4444448#5 4444448#6 4444448#7 1376977479#0 1376977480 26083721#0 26083721#1 26083721#2 26083721#3 26083721#4 26083721#5 763236958 274825775#0 274825775#2 274825775#3 274825775#4 274825775#5 274825775#6 132489382 132489381#0 132489381#1 132489381#2 132489381#3 132489381#4 132489381#6 424331644 1163675205#0 1163675205#2 1163675204 1122943538 99892125#0 281461761 274825772 4709000 281461765 282072286 99892115#0 1122943138 4709001 313985557#0 313985557#1 313985557#3 1233261279#1 1233261279#4 1233261279#6 522848924#0 522848924#3 522848924#5 522848924#9 522848924#12 522848924#17 -129733705 -4637693#15 -4637693#14 -4637693#12 -4637693#11 -4637693#9 -4637693#6 -4637693#2 -4637693#1 -4637693#0 -116521358#5 -116521358#3 -116521358#2 -489272543 -489272523 -489272545#3 -489272545#0 -326049909#6 -326049909#4 -326049909#3 -326049909#2 -326049909#0 -116521376#5 -116521376#1 -116521376#0 -116521351#1 -116521351#0 -1093293197 -43945926#19 -43945926#13 -867119139#1 4564570#0 4564570#2 175349440#2 175349440#3 175349440#4 376343439#0 1349109818 -1349109818 -376343439#0 -175349440#4 -175349440#3 -175349440#2 -175349440#1 -4564570#1 -4564571 -867119140#1 -867119140#0 -867122401 -5006957#3 -5006957#2 -5006957#1 -5006957#0 -116521355#7 -116521355#6 -116521355#5 -116521355#4 -116521355#3 -116521355#2 -116521355#1 -116521355#0 -819609698 4637691#0 4637691#3 4637691#4 4637691#6 4637691#7 4637691#8 4637691#9 4637691#10 4637691#11 4637691#13 1346896277#0 1346896277#2 130102755#0 115761223#0 115761223#2 115761223#5 115761223#8 115761223#9 -450469086#4 -450469086#3 450469086#2 450469086#4 115761223#10 115761223#11 7979180#0 7979180#1 7979180#2 7979180#3 7979180#6 7979180#7 -7979180#8 -7979180#6 7979180#6 7979180#7 7979180#9 7979180#11 135702881#0 135702881#2 135702881#3 135702881#4 130102735#0 130102735#1 130102735#2 130102735#4 130102735#7 130102735#8 450471788#2 450471788#4 4867539 4867541#0 4867541#2 4867541#4 361384544#0 4930227#0 4930227#1 36893365#0 36893365#2 36893365#3 -1107436765#6 -1107436765#5 -1107436765#4 -1107436765#3 -1107436765#2 -1107436765#1 35564769#0 35564769#2 -392365083#2 392365083#2 -35564769#2 -35564769#1 1107436765#1 1107436765#2 1107436765#3 1107436765#4 1107436765#5 1107436765#6 -36893365#3 -36893365#2 -36893365#1 -4930227#1 -4930227#0 -361384544#2 -4867541#4 -4867541#3 -4867541#0 -4867539 43945925#0 80702484#0 80702484#2 376350466#0 376350466#2 376350466#4 -451563847 -4867537 4564569 451563766#0 451563766#2 451563766#3 116521350 116521355#0 116521355#1 116521355#2 116521355#3 116521355#4 116521355#5 116521355#6 116521355#7 5006957#0 5006957#1 5006957#2 5006957#3 181612050#0 867119140#0 867119140#1 4564571 867119139#0 43945926#0 43945926#14 1093293197 116521351#0 116521351#1 116521376#0 116521376#1 116521376#2 326049909#0 326049909#2 326049909#3 326049909#4 326049909#5 489272545#0 489272545#2 489272523 489272543 116521358#0 116521358#3 116521358#4 1093414185#0 1093414185#1 1093414185#2 1093414185#3 4564572#0 4564572#1 4564572#2 1359873666 1359873679 1359873663 1359873673 1359873674 309391892#1 309391892#3 309391892#4 309391892#5 309391892#7 309391892#8 309391892#9 309391892#11 309391892#12 309391892#14 309391892#15 309391892#17 309391892#18 23076941#0 23076941#2 23076941#3 436157732#0 436157732#2 1252334522#0 43945927 1371170205 1371170204 273469756 221623840 161049089#0 171029341 171029340 147498082#0 147498082#1 147498082#2 1074537496 274492668#0 274492668#1 147498100 188354437 188354433 43945931#0 43945931#2 129146497 23262315 23262316 268074841 792446264 37770949 23692402 168542235 168542234 36827855 36827856#0 28723370 1207734641 1207734642#0 28723369#0 323465913#0 -799488163 -323465914 37685623 36834403#0 36834403#2 997725375 722951100#0 -1017656016#2 -995533298#1 -995533298#0 -1330893727 -995533299 -1338562344 -160904350 -4365725#1 8116671#0 8116671#2 8116671#3 8116671#5 521576118 4995025#0 4995025#2 4995025#3 4995025#5 4995025#8 4995025#9 4995025#10 1376665366#0 1376665366#1 1376665366#2 4411819#0 497384992#0 497384992#1 64417225 318729527 497384990 64417230#0 64417230#2 64417230#3 64417230#5 64417230#7 64417230#8 1289815865 722220357 1014174744#0 1014174744#2 1014174744#3 1014174744#5 1014174744#6 1014174744#7 1014174744#8 1014174744#9 1014174744#10 1014174744#11 1014174744#12 1289075393 764394530#0 764394530#1 232854826 278193378 1355321935 1355321934#0 -1381485798#4 -1381485798#2 -1381485798#1 -1202368185 -318729548 -148107872 -1160285448 283005735#0 278193379 4370514 124824611#0 119834687#0 1335133115#0 1335133115#1 -131281450#2 -131281450#1 -111480935#7 -111480935#4 -111480935#2 -111480935#1 4962579#0 4962579#2 4962579#3 4962579#5 4962579#7 4962579#9 4962579#10 4962579#11 1007837618#0 1007837618#1 1007837618#2 298672963#2 729398061#0 1340150766 -1300894377#1 -1300894377#0 956544045#0 1159401180#0 978974357#1 978974357#2 978974357#4 978974357#5 991767986#0 956544035#1 956544035#2 1161152338#0 1161152338#1 978974356#0 298672959#0 298672959#2 298672959#4 298672959#5 298672959#7 1193731826#0 1193731831#4 4762494#2 4762494#3 4762494#5 4762494#6 4762494#7 4762494#8 4762494#9 4762494#10 4762494#11 4762494#12 4762494#13 4762494#14 4762494#15 4762494#16 4762494#17 4762494#19 4762494#21 1336519369#0 1336519370 223783617 8112115#0 976000810 315744730 37929957 29248496 4858318 240212900 11019417 223783685 223783683#2 -4858314#2 -4858314#1 4637689#0 4637689#2 4637689#3 4637689#4 4637689#5 4637689#6 4637689#7 4637689#9 4637689#11 4637689#12 4637689#13 4637689#14 4637689#16 4637689#17 4637689#18 4637689#20 4637689#22 4637689#23 4637689#26 4637689#27 298838770#9 298838770#10 298838770#11 298838770#12 298838770#13 298838770#14 298838770#15 174569581 174569582#0 174569582#3 174569582#5 174569582#6 174569582#7 174569582#8 174569582#10 174569582#11 174569582#12 174569582#13 174569582#15 174569582#16 174569582#17 174569582#18 174569582#20 174569582#21 174569582#22 174569582#23 174569582#24 174569582#25 174569582#27 174569582#28 174569582#29 174569582#30 174569582#31 174569582#32 174569582#33 239253726 722951136#0 722951136#2 722951136#3 722951136#4 722951135#0 722951135#1 722951135#2 722951135#3 722951135#4 239253724#0 239253724#1 239253724#2 239253724#3 239253724#4 239253724#5 239253724#6 239253724#8 239253724#10 239253724#11 239253724#13 239253724#14 239253724#15 239253724#16 239253724#17 239253724#18 239253724#19 239253724#20 239253724#21 239253724#23 239253724#25 239253724#26 940017607 940017608#1 940017608#2 116786292#1 116786292#2 116786292#3 802293209 906335323#0 906335323#1 722951137#0 722951137#1 722951137#2 722951137#4 172946891#0 172946891#5 172946891#6 166885062#0 166885062#1 166885062#5 166885062#6 166885062#7 166885062#8 166885050#0 166885058 1167511574 1167511576#1 -1167511576#1 -1167511574 -166885058 -166885050#0 -166885062#8 -166885062#7 -166885062#6 -166885062#5 -166885062#4 -166885062#0 -172946891#9 -172946891#5 -172946891#4 -38481075 -722951137#3 -722951137#1 -722951137#0 -906335323#1 -906335323#0 -802293209 -116786292#3 -116786292#2 -116786292#1 -940017608#3 -940017608#1 -940017608#0 -239253724#26 -239253724#25 -239253724#23 -239253724#21 -239253724#20 -239253724#19 -239253724#18 -239253724#17 -239253724#16 -239253724#15 -239253724#14 -239253724#13 -239253724#12 -239253724#10 -239253724#8 -239253724#6 -239253724#5 -239253724#4 -239253724#3 -239253724#2 -239253724#1 -239253724#0 -722951135#5 -722951135#3 -722951135#2 -722951135#1 -722951135#0 -722951136#4 -722951136#3 -722951136#2 -722951136#1 -239253726 -174569582#34 -174569582#32 -174569582#31 -174569582#30 -174569582#29 -174569582#28 -174569582#27 -174569582#25 -174569582#24 -174569582#23 -174569582#22 -174569582#21 -174569582#20 -174569582#18 -174569582#17 -174569582#16 -174569582#15 -174569582#13 -174569582#12 -174569582#11 -174569582#10 -174569582#8 -174569582#7 -174569582#6 -174569582#5 -174569582#4 -174569582#2 102137716 -183627738#14 -183627738#13 -183627738#12 -183627738#10 -183627738#9 -183627738#7 -183627738#6 -183627738#4 -183627738#2 129786621#0 129786621#1 129786621#2 -129786621#0 -183627738#1 -1186038819#13 -1186038819#12 -1186038819#11 -1186038819#10 -1186038819#9 -1186038819#7 -1186038819#5 -1186038819#2 -1186038820 -124713385#17 -124713385#16 -124713385#15 -124713385#14 -124713385#13 -124713385#12 -124713385#11 -124713385#10 -124713385#9 -124713385#7 -124713385#6 -124713385#4 -124713385#2 -124713385#0 -54450295 -54563393#4 -54563393#3 -54563393#2 -54563393#1 -4886471#14 -4886471#12 -4886471#10 -4886471#8 -4886471#7 -4886471#3 -4886471#2 -4886471#1 -4886471#0 -636612462#1 -54563392#10 -54563392#8 -54563392#7 -54563392#6 -54563392#3 -54563392#1 -791299201#13 -791299201#10 -791299201#9 -791299201#7 -791299201#4 -791299201#2 -791299201#1 -791299201#0 -4637689#10 -4637689#8 -4637689#6 -4637689#5 -4637689#4 -4637689#3 -4637689#2 -4637689#1 54450246#0 1336552428#0 39610477#0 39610477#1 39610477#2 -39610477#3 -39610477#1 -39610477#0 -1336552428#1 -54450246#1 4858314#0 4858314#2 11019437#0 11019437#1 223783684 124824608 124824609 11019440 210673535#0 210673535#2 210673535#4 210673535#5 210673535#6 497656035#2 497656035#3 1329065144 976000809#0 129958038#1 129958038#3 129958039#0 129958039#2 804338811#3 804338811#4 804338811#5 804338811#6 804338811#7 804338811#8 804338811#9 804338811#10 804338811#11 804338812#1 1329065145 804338814#3 804338813#0 29205703#2 954044816 1329065146 38420862#0 38420862#1 38420862#2 38420862#3 38420862#4 38420862#5 38420862#6 1329065147 608502811#0 608502811#1 608502811#3 608502811#4 608502811#6 608502811#7 608502811#8 608502811#9 608502811#11 608502811#13 608502811#14 608502811#16 608502811#17 608502811#18 608502811#20 608502811#21 608502811#22 608502811#23 608502811#24 608502811#25 608502811#27 608502811#28 608502811#29 608502811#30 608502811#31 608502811#32 608502811#33 608502811#34 608502811#36 608502538#0 154976798#0 154976798#1 154976798#2 -154976791#5 -154976791#4 -154976791#3 -154976791#2 -154976791#1 832592530 -832592530 154976791#0 154976791#2 154976791#3 154976791#4 154976791#5 -154976798#2 -154976798#1 -154976798#0 -608502538#1 -608502811#37 -608502811#35 -608502811#33 -608502811#32 -608502811#31 -608502811#30 -608502811#29 -608502811#28 -608502811#27 -608502811#25 -608502811#24 -608502811#23 -608502811#22 -608502811#21 -608502811#20 -608502811#19 -608502811#17 -608502811#16 -608502811#14 -608502811#13 -608502811#12 -608502811#10 -608502811#8 -608502811#7 -608502811#6 -608502811#4 -608502811#3 -608502811#2 -608502811#0 -1329065148 -38420862#6 -38420862#5 -38420862#4 -38420862#3 -38420862#2 -38420862#1 -38420862#0 -1329065146 -954044816 -29205703#2 -29205703#0 -804338814#3 -804338814#2 -804338812#1 -804338812#0 -804338811#10 -804338811#9 -804338811#8 -804338811#7 -804338811#6 -804338811#5 -804338811#4 -804338811#3 -804338811#2 -129958039#1 -129958038#3 -129958038#2 -129958038#0 -1329065144 -497656035#3 -497656035#2 -497656035#1 -210673535#5 -210673535#4 -210673535#3 -210673535#1 -11019440 4865540 124824610#0 124824610#1 240212901#0 240212901#1 -29248496 -37929957 -315744730 5072935 1329060366 5072937 802296543#0 802296543#1 116769929#0 116769958 126035848 1347663031 1347663032 956544046#0 1159401182 1193727874 1161152336 187671511 1347663030 1329060361 126035845#1 1329060362 116769908 4386628#0 4386628#1 4448351#0 4448351#2 4448351#3 978974334#0 978974334#1 150662889 -210673536 -4448352#14 -4448352#12 -4448352#11 1220453965#0 1220453965#1 1220453965#2 -1220453965#2 -1220453965#1 815636821#0 4448352#13 4448352#15 -150662889 -978974334#1 -978974334#0 -4448351#4 -4448351#2 -4448351#1 116769952#0 116769952#1 802293206#0 802293206#1 802293206#2 1330970873#0 1330970873#1 1329060365 5072936#0 5072936#1 5072936#2 5072936#3 4890531#0 -223783617 -223783618 -1336519369#1 -4762494#21 -4762494#20 -4762494#18 -4762494#16 -4762494#15 -4762494#14 -4762494#13 -4762494#12 -4762494#11 -4762494#10 -4762494#9 -4762494#8 -4762494#7 -4762494#6 -4762494#5 -4762494#4 -4762494#2 -4762494#1 -1193731831#2 -298672959#7 -298672959#5 -298672959#4 -298672959#2 -298672959#1 956544039#0 1161152338#3 956544036#0 -978974357#5 -978974357#4 -978974357#3 -978974357#1 -978974357#0 1159401181#0 1159401181#2 -1340150764 1300894377#1 1300894377#2 -729398061#1 -298672963#2 -298672963#1 -1007837616#4 -1007837616#2 -1007837616#0 -4472859#9 -4472859#8 -4472859#7 -4472859#6 -4472859#5 -4472859#4 -4472859#1 -4472859#0 -1007837613#4 -1007837613#3 -124824611#5 124824611#4 -1231063027#1 -41169761#23 4823527#6 4823527#8 4823527#10 4823527#11 4823527#12 4823527#13 4377411#4 4377411#5 4377411#7 93639031#0 764394529#0 764394529#2 764394529#3 764394529#4 4472857#0 4472857#1 4472857#2 4472857#3 4472857#4 4472857#5 -232854826 -764394530#1 -764394530#0 29228638#0 764394530#1 232854826 4444323#0 4444323#2 4444323#3 4444323#4 4444323#5 4444323#6 4444323#7 4444323#8 4444323#9 4444323#10 -151543207#5 1287275698#0 1287275698#2 -1287275698#2 -1287275698#0 151543207#4 -4444323#10 -4444323#9 -4444323#8 -4444323#7 -4444323#6 -4444323#5 -4444323#4 -4444323#3 -4444323#2 -4444323#1 -232854826 -764394530#1 -764394530#0 -1289075393 -1014174744#12 -1014174744#11 -1014174744#10 -1014174744#9 -1014174744#8 -1014174744#7 -1014174744#6 -1014174744#5 -1014174744#4 -1014174744#2 -1014174744#1 -4995023 -1289815865 -64417230#8 -64417230#7 -64417230#6 -64417230#4 -64417230#2 -64417230#1 -497384990 39926223#0 39926223#1 -497384992#1 -497384992#0 -4411819#0 -1376665366#3 -1376665366#1 -1376665366#0 -4995025#10 -4995025#9 -4995025#8 -4995025#7 -4995025#3 -4995025#2 -4995025#1 4470500#0 4470500#3 4470500#4 4470500#5 4470500#6 4470500#8 799328062#1 799328062#2 118139308 182564620#0 -163695776#5 -163695776#3 -163695776#2 -163695776#1 4886703#7 4886703#9 497384996#0 497384996#2 497384996#3 190592494#0 190592494#3 4368368#0 4368368#1 4368368#2 497380891#0 1341837061 -36835850#1 380551989#1 497380890 366172721 995193691 114254067 4375278 87775720#1 172947935#0 172947935#1 216233365#0 216233365#1 293030163#0 168542233 866015968 168542236 23692401 37770954 23262317 799020924 985580659 634011450#0 26706320#0 29020812 472372809 472372808 472372807 472382644 192685115 799488162 799488161 799488160 799488159#0 448493739#0 448536967 72265692 799488158#0 799488158#1 799488157 106168572 799488156 1117763652 188503276 799488154 799488153 799488152 305994914#0 -713169093#1 -932387717 -932387718 -1093414184 -1093581085#2 -1093581085#0 -305994917#4 -34571089#3 -34571089#1 -34571089#0 -23544932#9 901665312#0 901665312#1 -305994916#0 -5009977#7 305994917#0 1093581085#0 1093581085#1 1093414184 932387718 932387717 713169093#0 810029142 202398570 202398573#0 202398573#2 202398573#3 307756986 -34582346#7 -34582346#3 -34582346#2 -34582346#1 4762142#2 -25867133#1 -25867238#14 173198396#3 173198396#5 173198396#7 173198396#9 173198396#10 25867133#0 25867133#1 -4762142#6 34582346#0 34582346#2 34582346#3 34582346#5 794760160 810173395#0 -23163175#5 -23163175#3 -23163175#2 -23163175#1 -23692318#13 -23692318#12 -23692318#11 -23692318#10 -23692318#9 -23692318#7 -23692318#5 -23692318#4 -23692318#3 -23692318#2 -23692318#0 -86484364#7 -86484364#6 -86484364#5 -86484364#4 -86484364#3 -86484364#2 -86484364#1 -43967203#6 -43967203#5 -43967203#4 -43967203#3 -43967203#2 -43967203#1 -522866677#13 -522866677#10 -522866677#8 -522866677#7 -522866677#6 -522866677#5 -522866677#4 -522866677#3 -522866677#2 -522866677#0 -794760159#1 -794760159#0 -522866676#3 -522866676#2 -522866676#1 -522866676#0 43230452 25750764#5 822332971#0 822332971#1 822332971#2 25788882 23163207#0 23163207#1 23146547#0 23146547#1 1117622080#0 1117622080#1 1117622081#0 1117622081#1 1117622082 1117665632 43973661 118038625 118039173 43973662 154080815 43973664 8072745#0 8072745#1 496106677 496106678 496106674 496106665 496106664 271280747#0 496106635#0 496106635#1 -220197238#3 -220197238#1 -790531107#3 -790531107#1 -4853258#8 -4853258#6 -24649912#4 908811054#0 908811053 -908811053" />
        <stop lane="-427089694#6_0" endPos="104.80" duration="60.00" parking="1" />
        <stop lane="321536730#9_0" endPos="11.55" duration="60.00" parking="1" />
        <stop lane="-1042536057_0" endPos="450.38" duration="60.00" parking="1" />
        <stop lane="1349109818_0" endPos="49.07" duration="60.00" parking="1" />
        <stop lane="-450469086#3_0" endPos="157.66" duration="60.00" parking="1" />
        <stop lane="-7979180#8_0" endPos="10.82" duration="60.00" parking="1" />
        <stop lane="-392365083#2_0" endPos="29.62" duration="60.00" parking="1" />
        <stop lane="1167511576#1_0" endPos="5.62" duration="60.00" parking="1" />
        <stop lane="129786621#2_0" endPos="51.86" duration="60.00" parking="1" />
        <stop lane="129786621#2_0" endPos="89.87" duration="60.00" parking="1" />
        <stop lane="39610477#2_0" endPos="187.85" duration="60.00" parking="1" />
        <stop lane="832592530_0" endPos="21.83" duration="60.00" parking="1" />
        <stop lane="1220453965#2_0" endPos="5.68" duration="60.00" parking="1" />
        <stop lane="-298672959#7_0" endPos="0.10" duration="60.00" parking="1" />
        <stop lane="124824611#4_0" endPos="13.31" duration="60.00" parking="1" />
        <stop lane="-1287275698#2_0" endPos="6.19" duration="60.00" parking="1" />
        <stop lane="-163695776#2_0" endPos="61.20" duration="60.00" parking="1" />
        <stop lane="-23544932#9_0" endPos="66.51" duration="60.00" parking="1" />
        <stop lane="4762142#2_0" endPos="118.98" duration="60.00" parking="1" />
        <stop lane="173198396#7_0" endPos="10.62" duration="60.00" parking="1" />
        <stop lane="-522866676#2_0" endPos="14.63" duration="60.00" parking="1" />
    </vehicle>
    <vehicle id="courier_1" type="myCourier" depart="0.00">