<?xml version='1.0' encoding='utf-8'?>
<routes xmlns:xsi="http://www.w3.org/2001/XMLSchema-instance" xsi:noNamespaceSchemaLocation="http://sumo.dlr.de/xsd/routes_file.xsd">
    <vType id="myCourier" maxSpeed="160.00" vClass="delivery" />
    <vehicle id="courier_0" type="myCourier" depart="0.00">
        <route edges="-908811053 -908811054#0 24649912#4 4853258#6 4853258#7 790531107#0 790531107#3 220197238#0 220197238#2 496106634#0 496106634#1 129956810#0 129956810#3 271280744#0 271280744#1 496106668 139718842 4720029 496106672 4756529 118038623 1010741759 43973661 43973660 376037666 376037661 1117665609-AddedOnRampEdge 1117665609 1117665609-AddedOffRampEdge 26707208 1117665604 26707343 279988298 1117665603#0 1117665603#1 1117665602 1117665601 1117665600 758688394#0 758688394#1 758688394#2-AddedOnRampEdge 758688394#2 758688394#3 758688394#3-AddedOffRampEdge 144826571 25585502-AddedOnRampEdge 25585502 25585502-AddedOffRampEdge 172569052#1 485459021#0-AddedOnRampEdge 485459021#0 485459021#0-AddedOffRampEdge 42437982 878730059-AddedOnRampEdge 878730059 4989766 1117620821 624713180 125137054#1-AddedOnRampEdge 125137054#1 125137053 279988299-AddedOnRampEdge 279988299 42437990 42437990-AddedOffRampEdge 183063429#0 792164784#0 364487016#0 364487016#2 34890086#0 34890086#1 -34890086#1 -34890086#0 -364487016#2 -364487016#1 -792164784#0 183063429#1 19884437#0-AddedOnRampEdge 19884437#0 1117665599#1 1117665598 1117665597 758688391#0 758688391#1 758688391#2 758688391#3 758688391#4 1117665596 376037659 1079178016 376037662 986031792#0 986031792#1 23011971 1117622083 1117622085 4756531 496106672 4756529 118038623 1010741759 43973661 43973660 376037666 376037661 1117665609-AddedOnRampEdge 1117665609 1117665609-AddedOffRampEdge 26707208 1117665604 26707343 279988298 1117665603#0 1117665603#1 1117665602 1117665601 1117665600 758688394#0 758688394#1 758688394#2-AddedOnRampEdge 758688394#2 -636573924#1 -1096086832 -412443961 -23605325#1 -23605325#0 8073392#0 1037791155#0 1037791155#1 -1041071820 -5608236#1 -5608238#4 -5608238#3 1076682852#0 1076682852#1 131827878#1 131827878#3 131827878#4 131827878#6 -141272700#11 -141272700#8 -141272700#7 -141272700#5 -141272700#4 -141272700#3 -141272700#2 -141272700#1 -130001848#3 -130001848#1 -130001848#0 -130001850 494418278#0 494418277#0 4389904#0 4389904#1 4389904#3 4389904#4 1306484257#0 1306484257#1 135355976#0 135355976#2 135355976#3 135355976#4 135355976#6 135355976#7 135355976#8 74094160#0 74094160#1 300040617#0 494418295#0 494418295#1 494418295#3 494418295#4 8073405#0 8073405#3 8073405#5 494418294#0 487979976#0 141221934 4680441 282920365#0 282920365#1 757830690#0 757830690#2 757830690#3 757830690#4 757830690#5 757830690#6 757830690#7 757830690#9 4444448#0 4444448#2 4444448#4 4444448#5 4444448#6 4444448#7 282920363#0 282920363#2 35064833#1 35064833#2 35064833#3 35064833#4 35064833#5 35064833#6 35064833#7 35064833#8 129146496#0 129146496#2 129146496#3 129146496#4 129146496#5 129146496#6 129146496#7 35065100#0 35065100#1 35065100#2 35065100#3 35065100#4 35065100#5 35065100#6 35065100#8 364182239#0 364182240#0 364182240#2 77115747#0 77115747#1 77115747#3 77115747#4 77115743#0 77115743#2 5006958 815560846#0 815560846#3 815560846#4 815560846#6 815560846#7 815560846#8 815560846#9 5006956#0 5006956#2 5006956#3 5006956#4 5006956#5 5006956#6 5006956#7 5006956#8 5006956#9 5006956#10 5006956#11 5006956#13 5006956#14 5006956#15 5006956#16 5006956#18 5006956#19 5006956#20 5006956#21 5006956#22 5006956#23 5006956#25 4867537 451563847 -376350466#4 -376350466#3 -376350466#1 -80702484#3 -80702484#1 5086229#0 5086229#1 450471788#2 450471788#4 4867539 4867541#0 4867541#2 4867541#4 361384544#0 4930227#0 4930227#1 4930227#2 4930227#3 4930227#4 4930227#5 450534290#0 450534290#2 450534290#3 450534290#4 450534290#5 450534290#7 450534290#8 450534290#9 450534290#11 450534290#12 450534291#1 450534291#2 450534291#4 450534291#6 450534291#7 1383981494 1383981495 136560682 137050640#0 137050640#1 43945924#0 43945924#1 43945924#2 43945924#3 43945924#4 43945924#5 43945924#7 43945924#8 43945924#9 1161055532#0 1161055532#1 1161055532#2 130102736 130102737#0 35560768#0 35560768#2 35560770#0 35560770#1 35560770#2 35560770#3 35560770#4 -361380079 118942257 -103455617 35560770#8 361380070 -361380070 -35560770#8 103455617 -118942257 5972622 -35560770#4 -35560770#3 -35560770#2 -35560770#1 -35560770#0 35560769#0 35560769#1 -1232088329 -130102736 -1161055532#2 -1161055532#1 -1161055532#0 -43945924#9 -43945924#8 -43945924#7 -43945924#6 -43945924#4 -43945924#3 -43945924#2 -43945924#1 -43945924#0 -137050640#1 -137050640#0 -136560682 -1383981495 -1383981494 -435145033#5 -435145033#3 -435145033#2 -435145033#1 -435145033#0 -361384547#1 -17055406#0 -5925381#11 -5925381#9 -5925381#7 -5925381#4 1107436765#0 35564769#0 35564769#2 -392365083#2 392365083#2 -35564769#2 -35564769#1 1107436765#1 1107436765#2 1107436765#3 1107436765#4 1107436765#5 1107436765#6 -36893365#3 -36893365#2 -36893365#1 -4930227#1 -4930227#0 -361384544#2 -4867541#4 -4867541#3 -4867541#0 -4867539 43945925#0 5086229#0 5086229#1 -130102735#8 -130102735#7 -130102735#6 -130102735#2 -130102735#1 -130102735#0 -135702881#4 -135702881#3 -135702881#2 -135702881#1 -7979180#11 -7979180#9 -7979180#8 -7979180#6 -7979180#4 -7979180#2 -7979180#1 -7979180#0 -115761223#11 -115761223#10 -450469086#4 -450469086#3 -450469086#1 -450469086#0 -450469085#2 -450469085#1 -450469085#0 -5009882#1 -450469650#2 -450469650#0 -451562660 -450469649 -4928712#1 -4928712#0 -451563847 -4867537 4564569 451563766#0 451563766#2 451563766#3 116521350 116521355#0 116521355#1 116521355#2 116521355#3 116521355#4 116521355#5 116521355#6 116521355#7 5006957#0 5006957#1 5006957#2 5006957#3 181612050#0 867119140#0 867119140#1 4564571 867119139#0 43945926#0 43945926#14 1093293197 116521351#0 116521351#1 116521376#0 116521376#1 116521376#2 326049909#0 326049909#2 326049909#3 326049909#4 326049909#5 489272545#0 489272545#2 489272523 489272543 116521358#0 116521358#3 116521358#4 1093414185#0 1093414185#1 1093414185#2 1093414185#3 4564572#0 4564572#1 4564572#2 1359873666 1359873679 1359873663 1359873673 1359873674 309391892#1 309391892#3 309391892#4 309391892#5 309391892#7 309391892#8 309391892#9 309391892#11 309391892#12 309391892#14 309391892#15 309391892#17 309391892#18 23076941#0 23076941#2 23076941#3 436157732#0 436157732#2 1252334522#0 43945927 1371170205 1371170204 273469756 221623840 161049089#0 171029341 171029340 147498082#0 147498082#1 147498082#2 1074537496 274492668#0 274492668#1 147498100 188354437 188354433 43945931#0 43945931#2 129146497 23262315 23262316 268074841 792446264 37770949 23692402 168542235 168542234 36827855 36827856#0 28723370 1207734641 1207734642#0 28723369#0 323465913#0 -799488163 -323465914 37685623 36834403#0 36834403#2 997725375 722951100#0 -1017656016#2 -995533298#1 -995533298#0 -1330893727 -995533299 -1338562344 -160904350 -4365725#1 8116671#0 8116671#2 8116671#3 8116671#5 521576118 4995025#0 4995025#2 4995025#3 4995025#5 4995025#8 4995025#9 4995025#10 1376665366#0 1376665366#1 1376665366#2 4411819#0 497384992#0 497384992#1 64417225 318729527 497384990 64417230#0 64417230#2 64417230#3 64417230#5 64417230#7 64417230#8 1289815865 722220357 1014174744#0 1014174744#2 1014174744#3 1014174744#5 1014174744#6 1014174744#7 1014174744#8 1014174744#9 1014174744#10 1014174744#11 1014174744#12 1289075393 764394530#0 764394530#1 232854826 278193378 1355321935 1355321934#0 -1381485798#4 -1381485798#2 -1381485798#1 -1202368185 -318729548 -148107872 -1160285448 283005735#0 278193379 4370514 124824611#0 119834687#0 1335133115#0 1335133115#1 -131281450#2 -131281450#1 -111480935#7 -111480935#4 -111480935#2 -111480935#1 4962579#0 4962579#2 4962579#3 4962579#5 4962579#7 4962579#9 4962579#10 4962579#11 1007837618#0 1007837618#1 1007837618#2 298672963#2 729398061#0 1340150766 -1300894377#1 -1300894377#0 956544045#0 1159401180#0 978974357#1 978974357#2 978974357#4 978974357#5 991767986#0 956544035#1 956544035#2 1161152338#0 1161152338#1 978974356#0 298672959#0 298672959#2 298672959#4 298672959#5 298672959#7 1193731826#0 1193731831#4 4762494#2 4762494#3 4762494#5 4762494#6 4762494#7 4762494#8 4762494#9 4762494#10 4762494#11 4762494#12 4762494#13 4762494#14 4762494#15 4762494#16 4762494#17 4762494#19 4762494#21 1336519369#0 1336519370 223783617 8112115#0 976000810 315744730 37929957 29248496 4858318 240212900 11019417 223783685 223783683#2 -4858314#2 -4858314#1 4637689#0 4637689#2 4637689#3 4637689#4 4637689#5 4637689#6 4637689#7 4637689#9 4637689#11 4637689#12 4637689#13 4637689#14 4637689#16 4637689#17 4637689#18 4637689#20 4637689#22 4637689#23 4637689#26 4637689#27 298838770#9 298838770#10 298838770#11 298838770#12 298838770#13 298838770#14 298838770#15 174569581 174569582#0 174569582#3 174569582#5 174569582#6 174569582#7 174569582#8 174569582#10 174569582#11 174569582#12 174569582#13 174569582#15 174569582#16 174569582#17 174569582#18 174569582#20 174569582#21 174569582#22 174569582#23 174569582#24 174569582#25 174569582#27 174569582#28 174569582#29 174569582#30 174569582#31 174569582#32 174569582#33 239253726 722951136#0 722951136#2 722951136#3 722951136#4 722951135#0 722951135#1 722951135#2 722951135#3 722951135#4 239253724#0 239253724#1 239253724#2 239253724#3 239253724#4 239253724#5 239253724#6 239253724#8 239253724#10 239253724#11 239253724#13 239253724#14 239253724#15 239253724#16 239253724#17 239253724#18 239253724#19 239253724#20 239253724#21 239253724#23 239253724#25 239253724#26 940017607 940017608#1 940017608#2 116786292#1 116786292#2 116786292#3 802293209 906335323#0 906335323#1 722951137#0 722951137#1 722951137#2 722951137#4 172946891#0 172946891#5 172946891#6 166885062#0 166885062#1 166885062#5 166885062#6 166885062#7 166885062#8 166885050#0 166885058 1167511574 1167511576#1 -1167511576#1 -1167511574 -166885058 -166885050#0 -166885062#8 -166885062#7 -166885062#6 -166885062#5 -166885062#4 -166885062#0 -172946891#9 -172946891#5 -172946891#4 -38481075 -722951137#3 -722951137#1 -722951137#0 -906335323#1 -906335323#0 -802293209 -116786292#3 -116786292#2 -116786292#1 -940017608#3 -940017608#1 -940017608#0 -239253724#26 -239253724#25 -239253724#23 -239253724#21 -239253724#20 -239253724#19 -239253724#18 -239253724#17 -239253724#16 -239253724#15 -239253724#14 -239253724#13 -239253724#12 -239253724#10 -239253724#8 -239253724#6 -239253724#5 -239253724#4 -239253724#3 -239253724#2 -239253724#1 -239253724#0 -722951135#5 -722951135#3 -722951135#2 -722951135#1 -722951135#0 -722951136#4 -722951136#3 -722951136#2 -722951136#1 -239253726 -174569582#34 -174569582#32 -174569582#31 -174569582#30 -174569582#29 -174569582#28 -174569582#27 -174569582#25 -174569582#24 -174569582#23 -174569582#22 -174569582#21 -174569582#20 -174569582#18 -174569582#17 -174569582#16 -174569582#15 -174569582#13 -174569582#12 -174569582#11 -174569582#10 -174569582#8 -174569582#7 -174569582#6 -174569582#5 -174569582#4 -174569582#2 102137716 -183627738#14 -183627738#13 -183627738#12 -183627738#10 -183627738#9 -183627738#7 -183627738#6 -183627738#4 -183627738#2 129786621#0 129786621#1 129786621#2 -129786621#0 -183627738#1 -1186038819#13 -1186038819#12 -1186038819#11 -1186038819#10 -1186038819#9 -1186038819#7 -1186038819#5 -1186038819#2 -1186038820 -124713385#17 -124713385#16 -124713385#15 -124713385#14 -124713385#13 -124713385#12 -124713385#11 -124713385#10 -124713385#9 -124713385#7 -124713385#6 -124713385#4 -124713385#2 -124713385#0 -54450295 -54563393#4 -54563393#3 -54563393#2 -54563393#1 -4886471#14 -4886471#12 -4886471#10 -4886471#8 -4886471#7 -4886471#3 -4886471#2 -4886471#1 -4886471#0 -636612462#1 -54563392#10 -54563392#8 -54563392#7 -54563392#6 -54563392#3 -54563392#1 -791299201#13 -791299201#10 -791299201#9 -791299201#7 -791299201#4 -791299201#2 -791299201#1 -791299201#0 -4637689#10 -4637689#8 -4637689#6 -4637689#5 -4637689#4 -4637689#3 -4637689#2 -4637689#1 54450246#0 1336552428#0 39610477#0 39610477#1 39610477#2 -39610477#3 -39610477#1 -39610477#0 -1336552428#1 -54450246#1 4858314#0 4858314#2 11019437#0 11019437#1 223783684 124824608 121645777 124824610#0 124824610#1 240212901#0 240212901#1 -29248496 -37929957 -315744730 5072935 1329060366 5072937 802296543#0 802296543#1 116769929#0 116769958 126035848 1347663031 1347663032 956544046#0 1159401181#0 1159401181#2 -1340150764 1300894377#1 1300894377#2 -283005738#6 -283005738#5 -283005738#4 -283005738#2 -283005738#1 -283005738#0 -126035853#7 -126035853#5 -126035853#4 -126035853#3 -126035853#2 -126035853#1 -126035853#0 278193377#0 1160285448 148107872 318729548 1202368185 1381485798#0 1381485798#2 1381485798#3 -1355321934#1 -1355321935 -278193378 -232854826 -764394530#1 -764394530#0 -1289075393 -1014174744#12 -1014174744#11 -1014174744#10 -1014174744#9 -1014174744#8 -1014174744#7 -1014174744#6 -1014174744#5 -1014174744#4 -1014174744#2 -1014174744#1 -4995023 -1289815865 -64417230#8 -64417230#7 -64417230#6 -64417230#4 -64417230#2 -64417230#1 -497384990 39926223#0 39926223#1 -497384992#1 -497384992#0 -4411819#0 -1376665366#3 -1376665366#1 -1376665366#0 -4995025#10 -4995025#9 -4995025#8 -4995025#7 -4995025#3 -4995025#2 -4995025#1 -316241825#3 182564616 995297961#0 995297961#1 995297961#2 995297961#3 995297961#4 995297961#6 995297961#7 4365725#0 160904350 1338562344 995533299 1330893727 995533298#0 995533298#1 1017656016#1 -722951100#2 -997725375 -36834403#2 -36834403#1 -37685623 323465914 799488164 -323465913#1 -23718907 -1207734642#2 -1207734641 -28723370 -36827856#1 -36827855 29240434 866015968 168542236 23692401 23692404 4564576 825474875 35544267#0 35544267#1 35544267#2 35560781#0 225156987 -52285443#1 892479187#0 272490078 351883027 1075546130#0 1075546130#1 272490074 1075546129 273469761 273469764#0 874649441 -1371170204 -1371170205 -43945927 -1252334522#1 -436157732#2 -436157732#1 -23076941#4 -23076941#2 -23076941#1 -309391892#18 -309391892#17 -309391892#16 -309391892#14 -309391892#12 -309391892#11 -309391892#10 -309391892#8 -309391892#7 -309391892#5 -309391892#4 -309391892#3 -309391892#2 -1359873674 -1359873673 -1359873663 1359873664#0 1359873664#1 -4564572#2 -4564572#1 -4564572#0 -1093414185#3 -1093414185#2 -1093414185#1 -1093414185#0 -116521358#5 -116521358#3 -116521358#2 -489272543 -489272523 -489272545#3 -489272545#0 -326049909#6 -326049909#4 -326049909#3 -326049909#2 -326049909#0 -116521376#5 -116521376#1 -116521376#0 -116521351#1 -116521351#0 -1093293197 -43945926#19 -43945926#13 -867119139#1 4564570#0 4564570#2 175349440#2 175349440#3 175349440#4 376343439#0 1349109818 -1349109818 -376343439#0 -175349440#4 -175349440#3 -175349440#2 -175349440#1 -4564570#1 -4564571 -867119140#1 -867119140#0 -867122401 -5006957#3 -5006957#2 -5006957#1 -5006957#0 -116521355#7 -116521355#6 -116521355#5 -116521355#4 -116521355#3 -116521355#2 -116521355#1 -116521355#0 -819609698 -451563766#5 -451563766#2 -451563766#1 -4564569 -5006956#28 -5006956#24 -5006956#22 -5006956#21 -5006956#20 -5006956#19 -5006956#18 -5006956#16 -5006956#15 -5006956#14 -5006956#13 -5006956#11 -5006956#10 -5006956#9 -5006956#8 -5006956#7 -5006956#6 -5006956#5 -5006956#4 -5006956#3 -5006956#2 -5006956#1 -815560846#9 -815560846#8 -815560846#7 -815560846#6 -815560846#5 -815560846#3 -815560846#2 -5006958 -77115743#2 -77115743#1 -77115747#5 -77115747#3 -77115747#2 -77115747#0 -364182240#2 -364182240#1 -364182239#1 -35065100#8 -35065100#7 -35065100#5 1099433273 38600883#1 38600883#2 364161325 364161339#0 364161339#1 364161339#2 -364161339#2 131640700#0 364161344 -131640699#0 364161333 131640700#6 38598754#1 38598754#2 -35065100#2 -35065100#1 -35065100#0 -129146496#7 -129146496#6 -129146496#5 -129146496#4 -129146496#3 -129146496#2 -129146496#1 -35064833#8 -35064833#7 -35064833#6 -35064833#5 -35064833#4 -35064833#3 -35064833#2 -35064833#1 -35064833#0 -282920363#1 1376977479#0 1376977480 26083721#0 26083721#1 26083721#2 26083721#3 26083721#4 26083721#5 763236958 274825775#0 274825775#2 274825775#3 274825775#4 274825775#5 274825775#6 723550885 132489389#1 132489390#0 132489390#2 132489390#3 132489390#4 132489390#5 132489390#6 132489390#8 132489390#10 132489390#11 132489390#13 132489390#14 132489390#15 132489390#16 132489390#17 132489390#18 132489388#0 132489388#1 293166574 17436114#0 -17436114#1 293166573 -132489388#2 -132489388#1 -132489388#0 -132489390#20 -132489390#17 -132489390#16 -132489390#15 -132489390#14 -132489390#13 -132489390#12 -132489390#10 -132489390#8 -132489390#7 -132489390#5 -132489390#4 -132489390#3 -132489390#2 -132489390#1 -132489389#1 -132489389#0 -274825775#11 -274825775#5 -274825775#4 -274825775#3 -274825775#2 274825775#2 274825775#3 -274825775#3 -274825775#2 -274825775#1 -833146648#1 -26083721#5 -26083721#4 -26083721#3 -26083721#2 -26083721#1 -26083721#0 -1376977480 -1376977479#3 -4444448#9 -4444448#6 -4444448#5 -4444448#4 -4444448#3 -4444448#1 -757830690#9 -757830690#7 -757830690#6 -757830690#5 -757830690#4 26083639#0 26083639#2 1042536057 -1042536057 -26083639#2 -26083639#1 -757830690#3 -757830690#2 -757830690#1 129146499 4685555 129146498#0 129146498#1 487979975#0 -494418294#0 -8073405#5 -8073405#4 -8073405#2 -494418295#4 -494418295#3 -494418295#2 -494418295#0 300040616#0 141221914#0 141221914#1 141221914#2 141221914#3 76966114 72659322 130102720 278219899#0 487980010#0 321536730#0 321536730#3 321536730#6 321536730#9 321792552#6 -25908473#0 130102760#4 300040607#0 4389903#11 115327563 278219900#0 130102721 130001847#0 130001847#3 74091395#0 74091395#1 64880303#1 64880303#4 64880303#6 84130080#0 427089685#0 1013344908 1013344909 427089688#2 -427089694#6 -1013344909 -1013344908 -427089685#1 -84130080#2 64880303#7 64880303#8 64880303#11 64880303#12 64880303#14 130001850 130001848#0 130001848#1 130001848#3 141272700#0 141272700#2 141272700#3 141272700#4 141272700#5 141272700#6 141272700#8 141272700#9 -131827878#7 -131827878#4 -131827878#3 -131827878#1 -131827878#0 -1076682852#0 -1076682853#2 -1076682853#1 -23075443 -770993820#11 -770993820#10 -770993820#9 -770993820#7 -770993820#4 -770993820#2 23600953 23600956 1085588307 141221917#0 141221917#2 141221917#3 141221917#5 1085588308#0 1085588309 1085588320#0 1085588322#0 1085588323#0 1085588323#3 810173399 1085588319 973932583#1 43967200#0 43967200#2 -1271889496#1 -1271889496#0 -4713379#1 -23717856#5 -23717856#3 -23717856#2 -23717856#0 4375304#0 4375304#1 4375304#2 4375304#3 4375304#4 4375304#5 154080829 43973662 154080815 43973664 8072745#0 8072745#1 496106677 496106678 496106674 496106665 496106664 271280747#0 496106635#0 496106635#1 -220197238#3 -220197238#1 -790531107#3 -790531107#1 -4853258#8 -4853258#6 -24649912#4 908811054#0 908811053 -908811053" />
        <stop lane="34890086#1_0" endPos="43.41" duration="60.00" parking="1" />
        <stop lane="8073392#0_0" endPos="33.93" duration="60.00" parking="1" />
        <stop lane="361380070_0" endPos="87.32" duration="60.00" parking="1" />
        <stop lane="-392365083#2_0" endPos="29.62" duration="60.00" parking="1" />
        <stop lane="-7979180#8_0" endPos="10.82" duration="60.00" parking="1" />
        <stop lane="-450469086#3_0" endPos="157.66" duration="60.00" parking="1" />
        <stop lane="1167511576#1_0" endPos="5.62" duration="60.00" parking="1" />
        <stop lane="129786621#2_0" endPos="51.86" duration="60.00" parking="1" />
        <stop lane="129786621#2_0" endPos="89.87" duration="60.00" parking="1" />
        <stop lane="39610477#2_0" endPos="187.85" duration="60.00" parking="1" />
        <stop lane="1349109818_0" endPos="49.07" duration="60.00" parking="1" />
        <stop lane="364161339#2_0" endPos="42.68" duration="60.00" parking="1" />
        <stop lane="131640700#0_0" endPos="115.62" duration="60.00" parking="1" />
        <stop lane="-131640699#0_0" endPos="97.26" duration="60.00" parking="1" />
        <stop lane="17436114#0_0" endPos="46.69" duration="60.00" parking="1" />
        <stop lane="274825775#3_0" endPos="17.50" duration="60.00" parking="1" />
        <stop lane="-1042536057_0" endPos="450.38" duration="60.00" parking="1" />
        <stop lane="321536730#9_0" endPos="11.55" duration="60.00" parking="1" />
        <stop lane="-427089694#6_0" endPos="104.80" duration="60.00" parking="1" />
    </vehicle>
    <vehicle id="courier_1" type="myCourier" depart="0.00">