<?xml version='1.0' encoding='UTF-8'?>
<routes xmlns:xsi="http://www.w3.org/2001/XMLSchema-instance" xsi:noNamespaceSchemaLocation="http://sumo.dlr.de/xsd/routes_file.xsd">
    <vType id="myCourier" maxSpeed="160" vClass="delivery" />
    <trip id="courier_1" type="myCourier" depart="0" from="-908811053" to="-908811053">
        <stop lane="-23803655#2_0" endPos="138.0675135645699" parking="true" duration="60" friendlyPos="true" />
        <stop lane="115542233#5_0" endPos="140.4709597440396" parking="true" duration="60" friendlyPos="true" />
        <stop lane="168523683_0" endPos="72.94047506355155" parking="true" duration="60" friendlyPos="true" />
        <stop lane="1000455943_0" endPos="10.890717440221962" parking="true" duration="60" friendlyPos="true" />
        <stop lane="23774605#0_0" endPos="24.678450488791036" parking="true" duration="60" friendlyPos="true" />
        <stop lane="25908473#8_0" endPos="50.14578021458952" parking="true" duration="60" friendlyPos="true" />
        <stop lane="-4573031_0" endPos="367.64329022356435" parking="true" duration="60" friendlyPos="true" />
        <stop lane="361380084_0" endPos="18.838875848887433" parking="true" duration="60" friendlyPos="true" />
        <stop lane="815560846#6_0" endPos="37.936988483490595" parking="true" duration="60" friendlyPos="true" />
        <stop lane="-1060101781_0" endPos="5.111185541562241" parking="true" duration="60" friendlyPos="true" />
        <stop lane="5767204#9_0" endPos="117.31544566606979" parking="true" duration="60" friendlyPos="true" />
        <stop lane="943652079_0" endPos="0.0" parking="true" duration="60" friendlyPos="true" />
        <stop lane="-116769946#1_0" endPos="25.188965090709406" parking="true" duration="60" friendlyPos="true" />
        <stop lane="44885346#1_0" endPos="29.57260793604328" parking="true" duration="60" friendlyPos="true" />
        <stop lane="-494126680_0" endPos="104.95819515145556" parking="true" duration="60" friendlyPos="true" />
        <stop lane="-154762992#1_0" endPos="67.30162839255921" parking="true" duration="60" friendlyPos="true" />
        <stop lane="-5009969_0" endPos="34.47500516345478" parking="true" duration="60" friendlyPos="true" />
        <stop lane="114353158#3_0" endPos="36.62094715600557" parking="true" duration="60" friendlyPos="true" />
        <stop lane="-160160384#2_0" endPos="24.888595466794794" parking="true" duration="60" friendlyPos="true" />
        <stop lane="-1231063027#1_0" endPos="80.76311249756583" parking="true" duration="60" friendlyPos="true" />
        <stop lane="1287275697#1_0" endPos="27.019410364600798" parking="true" duration="60" friendlyPos="true" />
        <stop lane="-818499289#1_0" endPos="0.0" parking="true" duration="60" friendlyPos="true" />
        <stop lane="995297961#7_0" endPos="85.39833526330173" parking="true" duration="60" friendlyPos="true" />
        <stop lane="-177370073#10_0" endPos="11.046387601694182" parking="true" duration="60" friendlyPos="true" />
        <stop lane="-1367116398_0" endPos="19.983052755008963" parking="true" duration="60" friendlyPos="true" />
        <stop lane="-49478531#2_0" endPos="6.714402336656686" parking="true" duration="60" friendlyPos="true" />
        <stop lane="-1138396893_0" endPos="64.69151548605635" parking="true" duration="60" friendlyPos="true" />
        <stop lane="1175584536#0_0" endPos="23.66110938005913" parking="true" duration="60" friendlyPos="true" />
        <stop lane="-910673210#1_0" endPos="0.0" parking="true" duration="60" friendlyPos="true" />
        <stop lane="37647848#3_0" endPos="39.98584726906147" parking="true" duration="60" friendlyPos="true" />
        <stop lane="-1369667900_0" endPos="4.831062555407368" parking="true" duration="60" friendlyPos="true" />
        <stop lane="1360294360#0_0" endPos="87.5362782062801" parking="true" duration="60" friendlyPos="true" />
        <stop lane="-217775963#0_0" endPos="18.75936925583381" parking="true" duration="60" friendlyPos="true" />
        <stop lane="910348285#0_0" endPos="124.44778292618548" parking="true" duration="60" friendlyPos="true" />
        <stop lane="941746140#0_0" endPos="19.804193767126357" parking="true" duration="60" friendlyPos="true" />
        <stop lane="199261724#0_0" endPos="9.775873065371751" parking="true" duration="60" friendlyPos="true" />
        <stop lane="33221909#0_0" endPos="19.37758377020833" parking="true" duration="60" friendlyPos="true" />
        <stop lane="-133738144#1_0" endPos="122.43675769893169" parking="true" duration="60" friendlyPos="true" />
        <stop lane="69970721#3_0" endPos="48.3246837680503" parking="true" duration="60" friendlyPos="true" />
        <stop lane="116693207_0" endPos="22.783333164110257" parking="true" duration="60" friendlyPos="true" />
        <stop lane="5168936#9_0" endPos="2.5438234994576976" parking="true" duration="60" friendlyPos="true" />
        <stop lane="345937856#2_0" endPos="28.192561232772682" parking="true" duration="60" friendlyPos="true" />
        <stop lane="309048515#1_0" endPos="3.7966331489820546" parking="true" duration="60" friendlyPos="true" />
        <stop lane="-970719942_0" endPos="16.20831640532404" parking="true" duration="60" friendlyPos="true" />
        <stop lane="493901660#2_0" endPos="4.419293656032229" parking="true" duration="60" friendlyPos="true" />
        <stop lane="199001165#0_0" endPos="18.770153453803005" parking="true" duration="60" friendlyPos="true" />
        <stop lane="412709743#1_0" endPos="12.582633012599661" parking="true" duration="60" friendlyPos="true" />
        <stop lane="493908852#0_0" endPos="5.743981699782489" parking="true" duration="60" friendlyPos="true" />
        <stop lane="44731129#15_0" endPos="19.137388460305814" parking="true" duration="60" friendlyPos="true" />
        <stop lane="757868854_0" endPos="8.7564780751759" parking="true" duration="60" friendlyPos="true" />
        <stop lane="821335843_0" endPos="8.744592431355288" parking="true" duration="60" friendlyPos="true" />
        <stop lane="114615093#3_0" endPos="95.48237867206386" parking="true" duration="60" friendlyPos="true" />
        <stop lane="-650170344_0" endPos="4.358805919403609" parking="true" duration="60" friendlyPos="true" />
        <stop lane="-1303102089_0" endPos="0.0" parking="true" duration="60" friendlyPos="true" />
        <stop lane="-1090828331#1_0" endPos="14.308414631908766" parking="true" duration="60" friendlyPos="true" />
        <stop lane="-653116835_0" endPos="0.9361615050200854" parking="true" duration="60" friendlyPos="true" />
        <stop lane="-1053140189#6_0" endPos="45.57750901519571" parking="true" duration="60" friendlyPos="true" />
        <stop lane="-91758821#4_0" endPos="0.0" parking="true" duration="60" friendlyPos="true" />
        <stop lane="-7979400#2_0" endPos="46.7072985991758" parking="true" duration="60" friendlyPos="true" />
        <stop lane="1306502154_0" endPos="42.4296137000324" parking="true" duration="60" friendlyPos="true" />
        <stop lane="-1358408710#1_0" endPos="0.0" parking="true" duration="60" friendlyPos="true" />
        <stop lane="45278096#9_0" endPos="10.057476625090564" parking="true" duration="60" friendlyPos="true" />
        <stop lane="-4788901#14_0" endPos="127.01588822881236" parking="true" duration="60" friendlyPos="true" />
        <stop lane="90513547#0_0" endPos="56.36937801124067" parking="true" duration="60" friendlyPos="true" />
        <stop lane="740148452_0" endPos="183.84092588616292" parking="true" duration="60" friendlyPos="true" />
        <stop lane="153239063_0" endPos="30.8082947315634" parking="true" duration="60" friendlyPos="true" />
        <stop lane="-124457059#0_0" endPos="141.64228391662607" parking="true" duration="60" friendlyPos="true" />
        <stop lane="-124457041#0_0" endPos="0.0" parking="true" duration="60" friendlyPos="true" />
        <stop lane="114012092#0_0" endPos="115.71419921626001" parking="true" duration="60" friendlyPos="true" />
        <stop lane="895577610_0" endPos="89.25081916508606" parking="true" duration="60" friendlyPos="true" />
        <stop lane="128478853#0_0" endPos="11.130693427927117" parking="true" duration="60" friendlyPos="true" />
        <stop lane="-891961802_0" endPos="38.45825375469196" parking="true" duration="60" friendlyPos="true" />
        <stop lane="87199980#1_0" endPos="128.2981974066188" parking="true" duration="60" friendlyPos="true" />
        <stop lane="378272695_0" endPos="26.338278961913275" parking="true" duration="60" friendlyPos="true" />
        <stop lane="-165726546#2_0" endPos="89.07225436537395" parking="true" duration="60" friendlyPos="true" />
        <stop lane="23241385#0_0" endPos="0.0" parking="true" duration="60" friendlyPos="true" />
        <stop lane="-1227383400_0" endPos="23.563338816112992" parking="true" duration="60" friendlyPos="true" />
        <stop lane="780344274#3_0" endPos="14.584709794723652" parking="true" duration="60" friendlyPos="true" />
        <stop lane="7979630#0_0" endPos="98.01821667995712" parking="true" duration="60" friendlyPos="true" />
        <stop lane="348346516#1_0" endPos="47.63218113258656" parking="true" duration="60" friendlyPos="true" />
        <stop lane="1205896516#0_0" endPos="18.90684558288022" parking="true" duration="60" friendlyPos="true" />
        <stop lane="51822108#0_0" endPos="12.191881648913256" parking="true" duration="60" friendlyPos="true" />
        <stop lane="-1056728183_0" endPos="5.050346522764902" parking="true" duration="60" friendlyPos="true" />
        <stop lane="-178411180_0" endPos="0.0" parking="true" duration="60" friendlyPos="true" />
        <stop lane="96725312_0" endPos="32.94965921748747" parking="true" duration="60" friendlyPos="true" />
        <stop lane="-910301255#1_0" endPos="0.0" parking="true" duration="60" friendlyPos="true" />
        <stop lane="-34850137#6_0" endPos="30.31176255365665" parking="true" duration="60" friendlyPos="true" />
        <stop lane="-719926581_0" endPos="19.48609693214181" parking="true" duration="60" friendlyPos="true" />
        <stop lane="-117031648#1_0" endPos="52.585946723970494" parking="true" duration="60" friendlyPos="true" />
        <stop lane="-373013631#9_0" endPos="26.291309519699617" parking="true" duration="60" friendlyPos="true" />
        <stop lane="1047644232#5_0" endPos="3.7745723729882483" parking="true" duration="60" friendlyPos="true" />
        <stop lane="-1085975025#0_0" endPos="61.52101324167721" parking="true" duration="60" friendlyPos="true" />
        <stop lane="-1247271041#1_0" endPos="7.761846406570918" parking="true" duration="60" friendlyPos="true" />
        <stop lane="1056562346_0" endPos="129.2037953446269" parking="true" duration="60" friendlyPos="true" />
        <stop lane="181621947#0_0" endPos="36.28781758735821" parking="true" duration="60" friendlyPos="true" />
        <stop lane="1368068907#0_0" endPos="48.05570303451104" parking="true" duration="60" friendlyPos="true" />
        <stop lane="123770719#0_0" endPos="38.865172216485405" parking="true" duration="60" friendlyPos="true" />
        <stop lane="29103211#3_0" endPos="67.8189930461503" parking="true" duration="60" friendlyPos="true" />
        <stop lane="-1286970844#0_0" endPos="40.180661151007314" parking="true" duration="60" friendlyPos="true" />
        <stop lane="1306440131#0_0" endPos="56.834159622535815" parking="true" duration="60" friendlyPos="true" />
    </trip>
</routes>