<?xml version='1.0' encoding='UTF-8'?>
<routes xmlns:xsi="http://www.w3.org/2001/XMLSchema-instance" xsi:noNamespaceSchemaLocation="http://sumo.dlr.de/xsd/routes_file.xsd">
    <vType id="myCourier" maxSpeed="160" vClass="delivery" />
    <trip id="courier_0" type="myCourier" depart="0" from="-908811053" to="-908811053">
        <stop lane="-91301228#4_0" endPos="96.38548904507601" parking="true" duration="60" friendlyPos="true" />
        <stop lane="-334324617#1_0" endPos="12.73520982002286" parking="true" duration="60" friendlyPos="true" />
        <stop lane="-898034897#5_0" endPos="4.4586900381522945" parking="true" duration="60" friendlyPos="true" />
        <stop lane="307445954#0_0" endPos="0.0" parking="true" duration="60" friendlyPos="true" />
        <stop lane="-38331253#19_0" endPos="29.159113884765148" parking="true" duration="60" friendlyPos="true" />
        <stop lane="-4414841#10_0" endPos="2.760695139089296" parking="true" duration="60" friendlyPos="true" />
        <stop lane="-4414841#4_0" endPos="39.20107192458119" parking="true" duration="60" friendlyPos="true" />
        <stop lane="-4756569#5_0" endPos="271.2156663290074" parking="true" duration="60" friendlyPos="true" />
        <stop lane="-218941500#1_0" endPos="8.55665166800317" parking="true" duration="60" friendlyPos="true" />
        <stop lane="-114012092#0_0" endPos="69.2464495753956" parking="true" duration="60" friendlyPos="true" />
        <stop lane="153239062#2_0" endPos="36.2771655670192" parking="true" duration="60" friendlyPos="true" />
        <stop lane="124457045_0" endPos="74.86118160256191" parking="true" duration="60" friendlyPos="true" />
        <stop lane="-124457057_0" endPos="111.19591682324197" parking="true" duration="60" friendlyPos="true" />
        <stop lane="124457050_0" endPos="99.2104367124827" parking="true" duration="60" friendlyPos="true" />
        <stop lane="124457064_0" endPos="119.11145157427862" parking="true" duration="60" friendlyPos="true" />
        <stop lane="-218255556#19_0" endPos="74.23485893551515" parking="true" duration="60" friendlyPos="true" />
        <stop lane="217480760#3_0" endPos="30.876500434082796" parking="true" duration="60" friendlyPos="true" />
        <stop lane="-153688222#0_0" endPos="78.45608729171582" parking="true" duration="60" friendlyPos="true" />
        <stop lane="895577614#0_0" endPos="42.59235543919249" parking="true" duration="60" friendlyPos="true" />
        <stop lane="-60334600#2_0" endPos="22.48416140436298" parking="true" duration="60" friendlyPos="true" />
        <stop lane="-1201886615_0" endPos="24.332693300072492" parking="true" duration="60" friendlyPos="true" />
        <stop lane="-1305748151#1_0" endPos="0.0" parking="true" duration="60" friendlyPos="true" />
        <stop lane="909966529#2_0" endPos="74.84529928333436" parking="true" duration="60" friendlyPos="true" />
        <stop lane="892767290_0" endPos="22.73488884699343" parking="true" duration="60" friendlyPos="true" />
        <stop lane="-216582087#3_0" endPos="10.969395691781246" parking="true" duration="60" friendlyPos="true" />
        <stop lane="27653905#0_0" endPos="21.205040006574297" parking="true" duration="60" friendlyPos="true" />
        <stop lane="54930294#26_0" endPos="39.10855550087647" parking="true" duration="60" friendlyPos="true" />
        <stop lane="157741540_0" endPos="22.30822826776547" parking="true" duration="60" friendlyPos="true" />
    </trip>
    <trip id="courier_1" type="myCourier" depart="0" from="-908811053" to="-908811053">
        <stop lane="-1336845534#1_0" endPos="8.296995156423467" parking="true" duration="60" friendlyPos="true" />
        <stop lane="-380067930_0" endPos="10.95556949438519" parking="true" duration="60" friendlyPos="true" />
        <stop lane="-33414899#1_0" endPos="5.866318199979984" parking="true" duration="60" friendlyPos="true" />
        <stop lane="4995002#0_0" endPos="35.32086277082058" parking="true" duration="60" friendlyPos="true" />
        <stop lane="330480880#0_0" endPos="45.392025870366574" parking="true" duration="60" friendlyPos="true" />
        <stop lane="-230144933#1_0" endPos="14.93582253872984" parking="true" duration="60" friendlyPos="true" />
        <stop lane="-113599166#4_0" endPos="31.0541197099423" parking="true" duration="60" friendlyPos="true" />
        <stop lane="-653726582#1_0" endPos="0.0" parking="true" duration="60" friendlyPos="true" />
        <stop lane="-377298664#1_0" endPos="31.73372494004925" parking="true" duration="60" friendlyPos="true" />
        <stop lane="819542183#0_1" endPos="16.97455514109225" parking="true" duration="60" friendlyPos="true" />
        <stop lane="1211252885_0" endPos="14.09653075125794" parking="true" duration="60" friendlyPos="true" />
        <stop lane="-117915107#3_0" endPos="43.062343721449515" parking="true" duration="60" friendlyPos="true" />
        <stop lane="-4930316#2_0" endPos="97.66859312543099" parking="true" duration="60" friendlyPos="true" />
        <stop lane="-121189378#7_0" endPos="50.03194203143093" parking="true" duration="60" friendlyPos="true" />
        <stop lane="-133885285#0_0" endPos="46.14965441249484" parking="true" duration="60" friendlyPos="true" />
        <stop lane="1103189913#2_0" endPos="36.80357778144639" parking="true" duration="60" friendlyPos="true" />
        <stop lane="129136049#0_0" endPos="67.28212446805153" parking="true" duration="60" friendlyPos="true" />
        <stop lane="97943697#1_0" endPos="67.16429388941296" parking="true" duration="60" friendlyPos="true" />
        <stop lane="-4853527#8_0" endPos="38.359146311301004" parking="true" duration="60" friendlyPos="true" />
        <stop lane="38992332_0" endPos="13.308125173983187" parking="true" duration="60" friendlyPos="true" />
        <stop lane="1234278744#6_0" endPos="89.6743539981657" parking="true" duration="60" friendlyPos="true" />
        <stop lane="-143058648#2_0" endPos="31.604092368229246" parking="true" duration="60" friendlyPos="true" />
        <stop lane="42688457#0_0" endPos="37.627980646516676" parking="true" duration="60" friendlyPos="true" />
        <stop lane="1290154786#17_1" endPos="38.735862830885736" parking="true" duration="60" friendlyPos="true" />
        <stop lane="799491981#2_0" endPos="42.47806510059293" parking="true" duration="60" friendlyPos="true" />
        <stop lane="-384336256_0" endPos="0.0" parking="true" duration="60" friendlyPos="true" />
        <stop lane="-426200265#3_0" endPos="12.85309318395386" parking="true" duration="60" friendlyPos="true" />
        <stop lane="-7979626#3_0" endPos="179.16914462524716" parking="true" duration="60" friendlyPos="true" />
        <stop lane="-1303069792#1_0" endPos="12.300395723627172" parking="true" duration="60" friendlyPos="true" />
    </trip>
    <trip id="courier_2" type="myCourier" depart="0" from="-908811053" to="-908811053">
        <stop lane="791793605#0_0" endPos="163.21905709280608" parking="true" duration="60" friendlyPos="true" />
        <stop lane="-44004977#2_0" endPos="9.919761922871293" parking="true" duration="60" friendlyPos="true" />
        <stop lane="-145656964#2_0" endPos="38.57529174512559" parking="true" duration="60" friendlyPos="true" />
        <stop lane="-116769821_0" endPos="95.47493985933204" parking="true" duration="60" friendlyPos="true" />
        <stop lane="174569581_0" endPos="18.284939994639934" parking="true" duration="60" friendlyPos="true" />
        <stop lane="494137623_0" endPos="58.382408428309816" parking="true" duration="60" friendlyPos="true" />
        <stop lane="-116786292#1_0" endPos="65.38120778898359" parking="true" duration="60" friendlyPos="true" />
        <stop lane="116786287#2_0" endPos="17.406765283795337" parking="true" duration="60" friendlyPos="true" />
        <stop lane="80500313#4_0" endPos="340.6119806831905" parking="true" duration="60" friendlyPos="true" />
        <stop lane="154762992#2_0" endPos="14.70240573521447" parking="true" duration="60" friendlyPos="true" />
        <stop lane="154763006#0_0" endPos="0.0" parking="true" duration="60" friendlyPos="true" />
        <stop lane="1006599796_0" endPos="9.809200925141539" parking="true" duration="60" friendlyPos="true" />
        <stop lane="-163051508#1_0" endPos="29.710224020244578" parking="true" duration="60" friendlyPos="true" />
        <stop lane="-1371170204_0" endPos="46.24226313665808" parking="true" duration="60" friendlyPos="true" />
        <stop lane="908436344_0" endPos="51.829685377309026" parking="true" duration="60" friendlyPos="true" />
        <stop lane="400578668#0_0" endPos="20.758070672243534" parking="true" duration="60" friendlyPos="true" />
        <stop lane="1205834695#0_0" endPos="9.88471231979406" parking="true" duration="60" friendlyPos="true" />
    </trip>
    <trip id="courier_3" type="myCourier" depart="0" from="-908811053" to="-908811053">
        <stop lane="-908800228_0" endPos="50.51561852919157" parking="true" duration="60" friendlyPos="true" />
        <stop lane="-5150688#12_0" endPos="101.10239776081264" parking="true" duration="60" friendlyPos="true" />
        <stop lane="161132481#0_0" endPos="16.951920559937694" parking="true" duration="60" friendlyPos="true" />
        <stop lane="-1287017927#1_0" endPos="4.745789547761618" parking="true" duration="60" friendlyPos="true" />
        <stop lane="-67281875#2_0" endPos="32.24525938104508" parking="true" duration="60" friendlyPos="true" />
        <stop lane="324480392#2_0" endPos="122.62013365316213" parking="true" duration="60" friendlyPos="true" />
        <stop lane="901236207_0" endPos="34.106607012157895" parking="true" duration="60" friendlyPos="true" />
        <stop lane="891050245#3_0" endPos="28.33849771161686" parking="true" duration="60" friendlyPos="true" />
        <stop lane="-35560770#10_0" endPos="120.72319880182351" parking="true" duration="60" friendlyPos="true" />
        <stop lane="267917208_0" endPos="303.4480089907714" parking="true" duration="60" friendlyPos="true" />
        <stop lane="-1007837616#0_0" endPos="91.79595739582534" parking="true" duration="60" friendlyPos="true" />
        <stop lane="115347507#7_0" endPos="68.65801241947568" parking="true" duration="60" friendlyPos="true" />
        <stop lane="63746790#0_0" endPos="27.186606746670282" parking="true" duration="60" friendlyPos="true" />
        <stop lane="186265873_0" endPos="42.61805406635921" parking="true" duration="60" friendlyPos="true" />
        <stop lane="-124573978#0_0" endPos="26.815776853442102" parking="true" duration="60" friendlyPos="true" />
        <stop lane="-147268479#1_0" endPos="95.28007776554088" parking="true" duration="60" friendlyPos="true" />
        <stop lane="4995170#0_0" endPos="130.39677395163739" parking="true" duration="60" friendlyPos="true" />
        <stop lane="93639041#11_0" endPos="15.755861985351899" parking="true" duration="60" friendlyPos="true" />
        <stop lane="-1376665366#1_0" endPos="21.917143360535967" parking="true" duration="60" friendlyPos="true" />
        <stop lane="165396024#0_0" endPos="114.29260707335044" parking="true" duration="60" friendlyPos="true" />
        <stop lane="4375001#4_0" endPos="5.161689438254926" parking="true" duration="60" friendlyPos="true" />
        <stop lane="412399263_0" endPos="10.15885052002713" parking="true" duration="60" friendlyPos="true" />
        <stop lane="374558221#0_0" endPos="43.004016464479655" parking="true" duration="60" friendlyPos="true" />
        <stop lane="-851259482_0" endPos="10.056340592680304" parking="true" duration="60" friendlyPos="true" />
        <stop lane="88373646#4_0" endPos="90.18046266172836" parking="true" duration="60" friendlyPos="true" />
        <stop lane="909934256_0" endPos="12.274480288391208" parking="true" duration="60" friendlyPos="true" />
    </trip>
</routes>