<?xml version='1.0' encoding='UTF-8'?>
<routes xmlns:xsi="http://www.w3.org/2001/XMLSchema-instance" xsi:noNamespaceSchemaLocation="http://sumo.dlr.de/xsd/routes_file.xsd"><vType id="myCourier" maxSpeed="160" vClass="delivery" /><trip id="courier_0" type="myCourier" depart="0" from="-908811053" to="-908811053"><stop lane="132684568#20_0" endPos="9.391141708223957" parking="true" duration="60" friendlyPos="true" /><stop lane="1060580556_0" endPos="0.0" parking="true" duration="60" friendlyPos="true" /><stop lane="-205094918#1_0" endPos="90.76865997277504" parking="true" duration="60" friendlyPos="true" /><stop lane="-159349432#2_0" endPos="110.59058311896973" parking="true" duration="60" friendlyPos="true" /><stop lane="-636535731#1_0" endPos="12.726893023966749" parking="true" duration="60" friendlyPos="true" /><stop lane="-60334586#8_0" endPos="38.760629599817726" parking="true" duration="60" friendlyPos="true" /><stop lane="144934775#1_0" endPos="36.31685478521186" parking="true" duration="60" friendlyPos="true" /><stop lane="95468925#1_0" endPos="1.6886647466820863" parking="true" duration="60" friendlyPos="true" /><stop lane="218255556#11_0" endPos="18.499693399430043" parking="true" duration="60" friendlyPos="true" /><stop lane="-150854984_0" endPos="111.39144016959438" parking="true" duration="60" friendlyPos="true" /><stop lane="114012083_0" endPos="11.81432363539559" parking="true" duration="60" friendlyPos="true" /><stop lane="217187993#0_0" endPos="38.581908554382125" parking="true" duration="60" friendlyPos="true" /><stop lane="380542180_0" endPos="50.182506192016305" parking="true" duration="60" friendlyPos="true" /><stop lane="-1212764969#1_0" endPos="27.33080688356681" parking="true" duration="60" friendlyPos="true" /><stop lane="-128478853#1_0" endPos="172.95983988942254" parking="true" duration="60" friendlyPos="true" /><stop lane="-1197486054#0_0" endPos="3.407837339629553" parking="true" duration="60" friendlyPos="true" /><stop lane="28539057_0" endPos="35.612504123147474" parking="true" duration="60" friendlyPos="true" /><stop lane="-40221754#4_0" endPos="84.24837358861942" parking="true" duration="60" friendlyPos="true" /><stop lane="4643388#9_0" endPos="8.835606486839263" parking="true" duration="60" friendlyPos="true" /><stop lane="-39207591#7_0" endPos="31.26560481043941" parking="true" duration="60" friendlyPos="true" /><stop lane="-910339198_0" endPos="13.912385760719213" parking="true" duration="60" friendlyPos="true" /><stop lane="213143782#0_0" endPos="0.0" parking="true" duration="60" friendlyPos="true" /><stop lane="1335950592_0" endPos="0.0" parking="true" duration="60" friendlyPos="true" /><stop lane="1109176037#0_0" endPos="41.40908716694821" parking="true" duration="60" friendlyPos="true" /><stop lane="790296474#4_0" endPos="5.138663896122336" parking="true" duration="60" friendlyPos="true" /><stop lane="220487855_0" endPos="34.462553329186846" parking="true" duration="60" friendlyPos="true" /></trip><trip id="courier_1" type="myCourier" depart="0" from="-908811053" to="-908811053"><stop lane="749007395#0_0" endPos="14.502293993261445" parking="true" duration="60" friendlyPos="true" /><stop lane="322342028#0_0" endPos="20.099736348106802" parking="true" duration="60" friendlyPos="true" /><stop lane="17250396#8_0" endPos="31.41906103651539" parking="true" duration="60" friendlyPos="true" /><stop lane="484082952_0" endPos="11.465532500017522" parking="true" duration="60" friendlyPos="true" /><stop lane="37945831#12_0" endPos="34.0957565893863" parking="true" duration="60" friendlyPos="true" /><stop lane="827407632#1_0" endPos="45.858369640239324" parking="true" duration="60" friendlyPos="true" /><stop lane="4448352#0_0" endPos="11.81091855795423" parking="true" duration="60" friendlyPos="true" /><stop lane="-608502811#27_0" endPos="17.009474334404864" parking="true" duration="60" friendlyPos="true" /><stop lane="-154917246#1_0" endPos="269.9242841856737" parking="true" duration="60" friendlyPos="true" /><stop lane="-160579945#0_0" endPos="11.118978449410278" parking="true" duration="60" friendlyPos="true" /><stop lane="683100833#0_0" endPos="58.8973126353474" parking="true" duration="60" friendlyPos="true" /><stop lane="-269102941#1_0" endPos="138.85679068817103" parking="true" duration="60" friendlyPos="true" /><stop lane="1107308754_0" endPos="45.042254419872734" parking="true" duration="60" friendlyPos="true" /><stop lane="-678839673#1_0" endPos="143.31655955512616" parking="true" duration="60" friendlyPos="true" /><stop lane="791299201#18_0" endPos="52.033306542069276" parking="true" duration="60" friendlyPos="true" /><stop lane="-393374779#1_0" endPos="0.0" parking="true" duration="60" friendlyPos="true" /><stop lane="8073405#3_0" endPos="4.9573624555823725" parking="true" duration="60" friendlyPos="true" /><stop lane="-64880299#12_0" endPos="67.01453073237104" parking="true" duration="60" friendlyPos="true" /><stop lane="-129869093_0" endPos="61.15316645495422" parking="true" duration="60" friendlyPos="true" /></trip><trip id="courier_2" type="myCourier" depart="0" from="-908811053" to="-908811053"><stop lane="154080844#0_0" endPos="10.155710240595939" parking="true" duration="60" friendlyPos="true" /><stop lane="25728003#9_0" endPos="38.39686690079184" parking="true" duration="60" friendlyPos="true" /><stop lane="-539165558#3_0" endPos="26.92663873363918" parking="true" duration="60" friendlyPos="true" /><stop lane="-145656994#6_0" endPos="94.12325821844519" parking="true" duration="60" friendlyPos="true" /><stop lane="-94415992#7_0" endPos="26.396935922896077" parking="true" duration="60" friendlyPos="true" /><stop lane="-137674526#1_0" endPos="82.61995595083155" parking="true" duration="60" friendlyPos="true" /><stop lane="-497384991#1_0" endPos="97.65930530132346" parking="true" duration="60" friendlyPos="true" /><stop lane="1176246653#0_0" endPos="0.0" parking="true" duration="60" friendlyPos="true" /><stop lane="-59416831#3_0" endPos="150.31851694015108" parking="true" duration="60" friendlyPos="true" /><stop lane="97942670#1_0" endPos="26.83702666093779" parking="true" duration="60" friendlyPos="true" /><stop lane="493901665#2_0" endPos="28.450232427057262" parking="true" duration="60" friendlyPos="true" /><stop lane="-806970123_0" endPos="16.121144500313772" parking="true" duration="60" friendlyPos="true" /><stop lane="479748263#11_0" endPos="42.45048848670845" parking="true" duration="60" friendlyPos="true" /><stop lane="-674252317#3_0" endPos="13.704769171050929" parking="true" duration="60" friendlyPos="true" /><stop lane="-133885290_0" endPos="25.22028892457994" parking="true" duration="60" friendlyPos="true" /><stop lane="27180324#7_0" endPos="0.0" parking="true" duration="60" friendlyPos="true" /><stop lane="1315504476#0_0" endPos="5.469894599588546" parking="true" duration="60" friendlyPos="true" /><stop lane="-38105640#2_0" endPos="26.47279929118923" parking="true" duration="60" friendlyPos="true" /><stop lane="4853527#9_0" endPos="1.7312568298520459" parking="true" duration="60" friendlyPos="true" /><stop lane="-91758814#1_0" endPos="6.886100874761719" parking="true" duration="60" friendlyPos="true" /><stop lane="-300632120_0" endPos="0.0" parking="true" duration="60" friendlyPos="true" /><stop lane="1059375297#0_0" endPos="15.861712530441787" parking="true" duration="60" friendlyPos="true" /><stop lane="-279281989#2_0" endPos="10.027082418636692" parking="true" duration="60" friendlyPos="true" /><stop lane="154256096#1_0" endPos="8.005401968896411" parking="true" duration="60" friendlyPos="true" /><stop lane="-65240204#1_0" endPos="78.89968277696718" parking="true" duration="60" friendlyPos="true" /><stop lane="213772016_0" endPos="106.5507218072913" parking="true" duration="60" friendlyPos="true" /><stop lane="-1263072428_0" endPos="9.578086181008056" parking="true" duration="60" friendlyPos="true" /><stop lane="1041898729_0" endPos="11.444324338593134" parking="true" duration="60" friendlyPos="true" /><stop lane="-894739206_0" endPos="0.0" parking="true" duration="60" friendlyPos="true" /><stop lane="-894739206_0" endPos="0.32939781686504893" parking="true" duration="60" friendlyPos="true" /><stop lane="875457582#0_0" endPos="19.753272735217212" parking="true" duration="60" friendlyPos="true" /><stop lane="-1004445883#3_0" endPos="37.99964414623181" parking="true" duration="60" friendlyPos="true" /><stop lane="1117168144_0" endPos="26.862027101468556" parking="true" duration="60" friendlyPos="true" /><stop lane="382661134_0" endPos="19.361579106680125" parking="true" duration="60" friendlyPos="true" /><stop lane="173022813#0_0" endPos="34.075108419893205" parking="true" duration="60" friendlyPos="true" /><stop lane="-1275726961#4_0" endPos="60.5663288404751" parking="true" duration="60" friendlyPos="true" /></trip><trip id="courier_3" type="myCourier" depart="0" from="-908811053" to="-908811053"><stop lane="826264576_0" endPos="20.10153562574955" parking="true" duration="60" friendlyPos="true" /><stop lane="-195204393#0_0" endPos="1.2075154575811136" parking="true" duration="60" friendlyPos="true" /><stop lane="33221909#0_0" endPos="19.379999132490205" parking="true" duration="60" friendlyPos="true" /><stop lane="-152210650#0_0" endPos="12.895825534817218" parking="true" duration="60" friendlyPos="true" /><stop lane="646827337_0" endPos="2.3505318547092044" parking="true" duration="60" friendlyPos="true" /><stop lane="133993209_0" endPos="0.0" parking="true" duration="60" friendlyPos="true" /><stop lane="223726561#0_0" endPos="0.0" parking="true" duration="60" friendlyPos="true" /><stop lane="-23267869#0_0" endPos="49.31016706887687" parking="true" duration="60" friendlyPos="true" /><stop lane="1208445255#0_0" endPos="6.622581397375619" parking="true" duration="60" friendlyPos="true" /><stop lane="701837539#0_0" endPos="64.43465910512859" parking="true" duration="60" friendlyPos="true" /><stop lane="-701837534_0" endPos="9.517576292782554" parking="true" duration="60" friendlyPos="true" /><stop lane="511792751#1_1" endPos="77.37960438719718" parking="true" duration="60" friendlyPos="true" /><stop lane="-38749991#2_0" endPos="5.427288011285239" parking="true" duration="60" friendlyPos="true" /><stop lane="-954324764#1_0" endPos="3.989786961731995" parking="true" duration="60" friendlyPos="true" /><stop lane="-1168334514#0_0" endPos="7.7277292913222615" parking="true" duration="60" friendlyPos="true" /><stop lane="910441076#0_0" endPos="23.019899045398947" parking="true" duration="60" friendlyPos="true" /><stop lane="217537076#0_0" endPos="15.338418803438135" parking="true" duration="60" friendlyPos="true" /><stop lane="173551821#0_0" endPos="111.91500577705996" parking="true" duration="60" friendlyPos="true" /><stop lane="23599961#7_0" endPos="32.09106438674728" parking="true" duration="60" friendlyPos="true" /></trip></routes>