<?xml version='1.0' encoding='UTF-8'?>
<routes xmlns:xsi="http://www.w3.org/2001/XMLSchema-instance" xsi:noNamespaceSchemaLocation="http://sumo.dlr.de/xsd/routes_file.xsd"><vType id="myCourier" maxSpeed="160" vClass="delivery" /><trip id="courier_1" type="myCourier" depart="0" from="-908811053" to="-908811053"><stop lane="-781621806#0_0" endPos="2.2513339623857496" parking="true" duration="60" friendlyPos="true" /><stop lane="29103211#4_0" endPos="7.122205871734984" parking="true" duration="60" friendlyPos="true" /><stop lane="-810173397#10_0" endPos="76.29045037278864" parking="true" duration="60" friendlyPos="true" /><stop lane="86484370#3_0" endPos="0.8280799918345098" parking="true" duration="60" friendlyPos="true" /><stop lane="908715766_0" endPos="14.774647806024772" parking="true" duration="60" friendlyPos="true" /><stop lane="98994942#0_0" endPos="184.7960603415992" parking="true" duration="60" friendlyPos="true" /><stop lane="363732478#0_0" endPos="107.40741309133836" parking="true" duration="60" friendlyPos="true" /><stop lane="906914579#0_0" endPos="8.435994757556237" parking="true" duration="60" friendlyPos="true" /><stop lane="17456610#2_0" endPos="76.20002514392628" parking="true" duration="60" friendlyPos="true" /><stop lane="-93229688#0_0" endPos="17.47071059046064" parking="true" duration="60" friendlyPos="true" /><stop lane="-157811767#14_0" endPos="70.72907998433443" parking="true" duration="60" friendlyPos="true" /><stop lane="39961246#3_0" endPos="30.38338093877745" parking="true" duration="60" friendlyPos="true" /><stop lane="-23587123_0" endPos="5.531659935821877" parking="true" duration="60" friendlyPos="true" /><stop lane="-267196136#2_0" endPos="65.73117320836938" parking="true" duration="60" friendlyPos="true" /><stop lane="384988463#0_0" endPos="0.0" parking="true" duration="60" friendlyPos="true" /><stop lane="-183763799#1_0" endPos="19.83170262170183" parking="true" duration="60" friendlyPos="true" /><stop lane="1368140787_0" endPos="8.672377365438424" parking="true" duration="60" friendlyPos="true" /><stop lane="81243948#7_0" endPos="12.24742649980665" parking="true" duration="60" friendlyPos="true" /><stop lane="-229624374#1_0" endPos="20.080473133759853" parking="true" duration="60" friendlyPos="true" /><stop lane="1287788362_0" endPos="30.978984156431054" parking="true" duration="60" friendlyPos="true" /><stop lane="-151584486#1_0" endPos="56.5002627037549" parking="true" duration="60" friendlyPos="true" /><stop lane="-212045802#1_0" endPos="6.715346002103753" parking="true" duration="60" friendlyPos="true" /><stop lane="910335664#1_0" endPos="42.107470585312015" parking="true" duration="60" friendlyPos="true" /><stop lane="218723476#2_0" endPos="97.57006231939172" parking="true" duration="60" friendlyPos="true" /><stop lane="37647849#6_1" endPos="112.92511895502379" parking="true" duration="60" friendlyPos="true" /><stop lane="129137332#3_0" endPos="3.1228207164182" parking="true" duration="60" friendlyPos="true" /><stop lane="-141469622#2_0" endPos="4.792759807271887" parking="true" duration="60" friendlyPos="true" /><stop lane="121782502_0" endPos="46.703616946315535" parking="true" duration="60" friendlyPos="true" /><stop lane="346330548#0_0" endPos="27.19908888076732" parking="true" duration="60" friendlyPos="true" /><stop lane="-114994527#2_0" endPos="25.984754906724067" parking="true" duration="60" friendlyPos="true" /><stop lane="-344108108#3_0" endPos="0.0" parking="true" duration="60" friendlyPos="true" /><stop lane="275512186#3_0" endPos="7.51180555244689" parking="true" duration="60" friendlyPos="true" /><stop lane="-415476677#2_0" endPos="128.54412373652923" parking="true" duration="60" friendlyPos="true" /><stop lane="670690034#0_0" endPos="55.10918773934346" parking="true" duration="60" friendlyPos="true" /><stop lane="805669567_0" endPos="6.152415485074508" parking="true" duration="60" friendlyPos="true" /><stop lane="1230702901#2_0" endPos="24.075130172262952" parking="true" duration="60" friendlyPos="true" /><stop lane="230514723#0_0" endPos="66.85871230621105" parking="true" duration="60" friendlyPos="true" /><stop lane="-934633642_0" endPos="5.636760284152705" parking="true" duration="60" friendlyPos="true" /><stop lane="116026833#9_0" endPos="28.84615168043872" parking="true" duration="60" friendlyPos="true" /><stop lane="-63746790#6_0" endPos="43.63566222391254" parking="true" duration="60" friendlyPos="true" /><stop lane="24257815#5_1" endPos="154.12468548526118" parking="true" duration="60" friendlyPos="true" /><stop lane="-517106290#1_0" endPos="10.95314220819987" parking="true" duration="60" friendlyPos="true" /><stop lane="-985282016_0" endPos="10.445424021635889" parking="true" duration="60" friendlyPos="true" /><stop lane="76779508#2_0" endPos="0.0" parking="true" duration="60" friendlyPos="true" /><stop lane="931939890#0_0" endPos="28.33109974578345" parking="true" duration="60" friendlyPos="true" /><stop lane="-105540858#10_0" endPos="19.02008873327037" parking="true" duration="60" friendlyPos="true" /><stop lane="4388680#17_0" endPos="45.10926970046893" parking="true" duration="60" friendlyPos="true" /><stop lane="226024808#2_0" endPos="2.3134782623145935" parking="true" duration="60" friendlyPos="true" /><stop lane="4853527#9_0" endPos="1.7312568298520459" parking="true" duration="60" friendlyPos="true" /><stop lane="169684264#4_0" endPos="1.9492002669429347" parking="true" duration="60" friendlyPos="true" /><stop lane="26773767#0_0" endPos="21.064214959434267" parking="true" duration="60" friendlyPos="true" /><stop lane="-1120494273#3_0" endPos="70.28820421296606" parking="true" duration="60" friendlyPos="true" /><stop lane="1360087626#0_0" endPos="0.0" parking="true" duration="60" friendlyPos="true" /><stop lane="40221756#1_0" endPos="79.44914620659321" parking="true" duration="60" friendlyPos="true" /><stop lane="-4930291#2_0" endPos="142.82026778395357" parking="true" duration="60" friendlyPos="true" /><stop lane="22901083#1_0" endPos="147.8747809307424" parking="true" duration="60" friendlyPos="true" /><stop lane="160244784#0_0" endPos="49.813574115273894" parking="true" duration="60" friendlyPos="true" /><stop lane="-378272699_0" endPos="31.24424924789572" parking="true" duration="60" friendlyPos="true" /><stop lane="240887168#0_0" endPos="124.2225799506291" parking="true" duration="60" friendlyPos="true" /><stop lane="124457039_0" endPos="33.61413034690573" parking="true" duration="60" friendlyPos="true" /><stop lane="124457031_0" endPos="96.36933561877876" parking="true" duration="60" friendlyPos="true" /><stop lane="-150855044#1_0" endPos="65.07344014863452" parking="true" duration="60" friendlyPos="true" /><stop lane="-43992431#2_0" endPos="117.54684235651338" parking="true" duration="60" friendlyPos="true" /><stop lane="183593439#17_0" endPos="0.0" parking="true" duration="60" friendlyPos="true" /><stop lane="521582244#0_0" endPos="20.279556346514767" parking="true" duration="60" friendlyPos="true" /><stop lane="4930295#9_0" endPos="139.82370210043928" parking="true" duration="60" friendlyPos="true" /><stop lane="93218060#0_0" endPos="25.17904153198166" parking="true" duration="60" friendlyPos="true" /><stop lane="-1267952625#1_0" endPos="0.0" parking="true" duration="60" friendlyPos="true" /><stop lane="266413514#5_0" endPos="37.440551553329406" parking="true" duration="60" friendlyPos="true" /><stop lane="158312519#10_0" endPos="59.16484714471645" parking="true" duration="60" friendlyPos="true" /><stop lane="4854550#7_0" endPos="19.7637761292034" parking="true" duration="60" friendlyPos="true" /><stop lane="1031678901_0" endPos="209.2467700509965" parking="true" duration="60" friendlyPos="true" /><stop lane="1161099307_0" endPos="12.818549912052998" parking="true" duration="60" friendlyPos="true" /><stop lane="-19887802_0" endPos="20.540774988156258" parking="true" duration="60" friendlyPos="true" /><stop lane="-1022551659_0" endPos="0.0" parking="true" duration="60" friendlyPos="true" /><stop lane="-895361537_0" endPos="17.88014873056249" parking="true" duration="60" friendlyPos="true" /><stop lane="97938984#7_0" endPos="100.3095477725118" parking="true" duration="60" friendlyPos="true" /><stop lane="154762996#2_0" endPos="15.311904164434022" parking="true" duration="60" friendlyPos="true" /><stop lane="-100974120#1_0" endPos="168.75246562546798" parking="true" duration="60" friendlyPos="true" /><stop lane="67146923#0_0" endPos="9.080881574155683" parking="true" duration="60" friendlyPos="true" /><stop lane="-116769928#0_0" endPos="30.599208211757375" parking="true" duration="60" friendlyPos="true" /><stop lane="-103891113#2_0" endPos="42.40822796919033" parking="true" duration="60" friendlyPos="true" /><stop lane="-486486385#1_0" endPos="100.30567919795055" parking="true" duration="60" friendlyPos="true" /><stop lane="-151166911_0" endPos="66.21314561982904" parking="true" duration="60" friendlyPos="true" /><stop lane="1095138225#0_0" endPos="710.1040502950415" parking="true" duration="60" friendlyPos="true" /><stop lane="138248530#0_0" endPos="162.9805514867998" parking="true" duration="60" friendlyPos="true" /><stop lane="-445154945#1_0" endPos="8.799671261509665" parking="true" duration="60" friendlyPos="true" /><stop lane="416900052_0" endPos="78.47791033805916" parking="true" duration="60" friendlyPos="true" /><stop lane="-393374782#0_0" endPos="54.383020898404105" parking="true" duration="60" friendlyPos="true" /><stop lane="-8555452#1_0" endPos="32.97090501411157" parking="true" duration="60" friendlyPos="true" /><stop lane="145656988#0_0" endPos="26.6329336432914" parking="true" duration="60" friendlyPos="true" /><stop lane="111607753#2_0" endPos="40.031728898795194" parking="true" duration="60" friendlyPos="true" /><stop lane="-1093643093#1_0" endPos="0.0" parking="true" duration="60" friendlyPos="true" /><stop lane="321792552#0_0" endPos="53.84016693821481" parking="true" duration="60" friendlyPos="true" /><stop lane="-364132568#5_0" endPos="0.0" parking="true" duration="60" friendlyPos="true" /><stop lane="-1222706669#0_0" endPos="110.20784368526981" parking="true" duration="60" friendlyPos="true" /><stop lane="-1299306521_0" endPos="20.8201547290461" parking="true" duration="60" friendlyPos="true" /><stop lane="-1062050069_0" endPos="15.461001586324308" parking="true" duration="60" friendlyPos="true" /><stop lane="-24647332#1_0" endPos="22.045928372195377" parking="true" duration="60" friendlyPos="true" /><stop lane="23803654#0_0" endPos="298.86777321354293" parking="true" duration="60" friendlyPos="true" /></trip></routes>