<?xml version="1.0" encoding="UTF-8"?>

<!-- generated on 2025-05-16 15:20:11 by Eclipse SUMO duarouter Version 1.22.0
<duarouterConfiguration xmlns:xsi="http://www.w3.org/2001/XMLSchema-instance" xsi:noNamespaceSchemaLocation="http://sumo.dlr.de/xsd/duarouterConfiguration.xsd">

    <input>
        <net-file value="simulation_files/map.net.xml"/>
        <route-files value="experiments/experiment_9_4/courier.trips.xml"/>
    </input>

    <output>
        <output-file value="experiments/experiment_9_4/courier.rou.xml"/>
    </output>

    <report>
        <verbose value="true"/>
    </report>

</duarouterConfiguration>
-->

<routes xmlns:xsi="http://www.w3.org/2001/XMLSchema-instance" xsi:noNamespaceSchemaLocation="http://sumo.dlr.de/xsd/routes_file.xsd">
    <vType id="myCourier" maxSpeed="160.00" vClass="delivery"/>
    <vehicle id="courier_0" type="myCourier" depart="0.00">
        <route edges="-908811053 -908811054#0 -24649912#3 -24649912#2 -24649912#1 -24649912#0 -4472935#15 -4472935#14 -4472935#13 -4472935#12 -4472935#11 -4472935#10 -4472935#9 -4472935#8 -4472935#7 -4472935#6 -4472935#4 -4472935#2 -4472935#1 1117665628#0 1117665628#1 1117665627 296643017 75601197 23607228 168913375 1331885789#0 37715631#0 1281160609 1283310926#1 -8072830 1117665613#1 1331885787 168913376 298894521 1117665612 1117665611 4760137#0 161157238#0 -25751069#14 -25751069#13 -25751069#11 -25751069#10 -25751069#9 -25751069#8 -25751069#7 -25751069#5 -25751069#4 -25751069#3 -25751069#2 25751363#0 25751364#0 -522866676#2 25751069#0 -25751069#1 522866676#2 522866676#3 794760159#0 794760159#1 522866677#0 522866677#1 522866677#3 522866677#4 522866677#5 522866677#6 522866677#7 522866677#8 522866677#10 522866677#12 43967203#0 43967203#2 43967203#3 43967203#4 43967203#5 43967203#6 86484364#0 86484364#2 86484364#3 86484364#4 86484364#5 86484364#6 86484364#7 23692318#0 23692318#1 23692318#3 23692318#4 23692318#5 23692318#6 23692318#8 23692318#10 23692318#11 23692318#12 23692318#13 23163175#0 23163175#2 23163175#3 23163175#4 783201902 -296744606 -794760160 -34582346#7 -34582346#3 -34582346#2 -34582346#1 4762142#2 -25867133#1 -25867238#14 -25867238#13 -25867238#12 -25867238#11 -25867238#9 906902121#0 906902121#2 906902121#3 -1184888329#0 -25867132#6 -25867132#5 -25867132#3 -25867132#1 43967207#5 23580577 305994915 -790296472#1 -1093414183#3 -1093414183#2 -1093414183#1 1210142523#0 1111749744#2 1111749745#1 1111749745#2 5009977#0 5009977#2 -34571089#3 -34571089#1 -34571089#0 -23544932#9 901665312#0 901665312#1 -305994916#0 -5009977#7 305994917#0 1093581085#0 1093581085#1 1093414184 932387718 932387717 713169093#0 810029142 202398570 202398573#0 202398573#2 202398573#3 794760161 810173395#0 810173395#1 810173395#2 810173395#3 -4472933#26 -4472933#24 -4472933#22 -4472933#20 -4472933#19 -4472933#18 -4472933#17 -4472933#15 -4472933#13 -4472933#11 -4472933#10 -4472933#9 -4472933#8 -4472933#5 -4472933#4 -4472933#2 -4472933#0 -827130772#8 -827130772#7 -827130772#4 -827130772#2 -827130772#1 -827130772#0 -24009035#7 -24009035#6 -24009035#4 24009035#0 24009035#6 24009035#7 -755686002#4 -755686002#2 -755686002#0 -827099637#1 -755686004#5 -755686004#4 -755686004#3 -755686004#1 -755686004#0 5150686#0 5150686#1 5150686#3 5150686#4 725851950#0 725851950#2 725851950#4 725851950#6 725851950#7 725851950#8 725851950#9 725851950#10 810173393#0 810173393#1 827099636 4685554#0 4685554#1 4685554#2 4685554#4 4685554#5 4685554#6 4685554#7 4685554#8 4685554#10 4685554#11 23600222#0 141221939 296774242 770993820#0 770993820#3 770993820#5 770993820#8 770993820#10 770993820#11 23075443 1076682853#1 1076682853#2 1076682852#0 1076682852#1 131827878#1 131827878#3 131827878#4 131827878#6 -141272700#11 -141272700#8 -141272700#7 -141272700#5 -141272700#4 -141272700#3 -141272700#2 -141272700#1 -130001848#3 -130001848#1 -130001848#0 -130001850 -591393257 -64880303#13 -64880303#11 -64880303#10 -64880303#7 -64880303#6 -64880303#4 -64880303#3 -23204987#16 -23204987#12 -23204987#11 -23204987#9 -23204987#8 -23204987#6 -23204987#5 41791074#0 -41791074#1 23204987#5 23204987#6 -44452602#14 -44452602#12 44452603#0 44452603#1 44452603#2 44452603#4 44452603#7 44452603#8 44452603#10 44452603#11 44452603#13 44452603#14 45453311 1105974235#0 1105974235#1 1105974235#2 1105974235#4 -1105974235#0 23776425#1 -44452602#5 44452602#5 -44452602#5 -44452602#4 -44452602#3 -44452602#2 -4389903#4 -4389903#3 -4389903#2 92253774 130001853 240589999#0 130001851#0 130001851#1 135355979#0 135355979#1 135355979#3 135355979#6 -374287342#2 -789185903#1 -789185903#0 -94422749#15 -94422749#13 -94422749#12 -94422749#11 -94422749#10 -94422749#3 -94422749#2 -94422749#1 -1242495991#1 -1242495991#0 -475833816#11 -475833816#10 -475833816#9 -475833816#8 -475833816#7 -475833816#6 -475833816#5 -475833816#4 -475833816#3 -475833816#2 -475833816#1 -192706043#2 173053037#0 173053037#2 192706045#2 192706045#4 192706045#7 192706045#8 1244929414 1244929413#2 -1244929413#0 192706045#13 192706045#14 192706045#15 192706045#16 1175963611#0 1175963611#1 392232661 -392232683#0 392232683#0 -392232661 -392232690 -1175963611#0 -192706045#16 -192706045#15 -192706045#14 -192706045#13 1244929413#0 -1244929413#2 -1244929414 -192706045#8 327117250#0 327117250#1 327117250#2 327117250#3 327117250#4 475833816#6 475833816#7 475833816#8 1242495983#0 -1242495983#1 -475833816#8 -475833816#7 -475833816#6 -475833816#5 -475833816#4 -475833816#3 -475833816#2 -475833816#1 129146493#0 129146493#2 129146493#3 129146493#4 129146493#6 37930778 4709000 281461765 282072286 274825773 274825774 99892052#0 1122943537 -1163675204 -1163675205#2 -1163675205#1 -424331644 -132489381#7 -132489381#5 -132489381#3 -132489381#2 -132489381#1 -132489381#0 -132489382 -274825775#11 -274825775#5 -274825775#4 -274825775#3 -274825775#2 274825775#2 274825775#3 274825775#4 274825775#5 274825775#6 723550885 132489389#1 132489390#0 132489390#2 132489390#3 132489390#4 132489390#5 132489390#6 132489390#8 132489390#10 132489390#11 132489390#13 132489390#14 132489390#15 132489390#16 132489390#17 132489390#18 132489388#0 132489388#1 293166574 17436114#0 -17436114#1 293166573 132489388#3 132489388#5 132489388#6 132489388#7 132489388#8 132489388#10 132489388#11 132489388#12 132489388#13 132489388#15 -129733705 -4637693#15 -4637693#14 -4637693#12 -4637693#11 -4637693#9 -4637693#6 -4637693#2 -4637693#1 -4637693#0 1093414185#0 1093414185#1 1093414185#2 1093414185#3 4564572#0 4564572#1 4564572#2 1359873666 1359873679 1359873663 1359873673 1359873674 309391892#1 309391892#3 309391892#4 309391892#5 309391892#7 309391892#8 309391892#9 309391892#11 309391892#12 309391892#14 309391892#15 309391892#17 309391892#18 23076941#0 23076941#2 23076941#3 436157732#0 436157732#2 1252334522#0 43945927 1371170205 1371170204 273469756 221623840 161049089#0 171029341 171029340 147498082#0 147498082#1 147498082#2 1074537496 274492668#0 274492668#1 147498100 188354437 188354433 43945931#0 43945931#2 129146497 23262315 23262316 268074841 792446264 37770949 23692402 168542235 130848159 437451817#0 23909876#0 8086267 39348071 -87775720#1 -4375278 -114254067 -995193691 -366172721 -497380890 -380551990#1 -380551989#0 1025180489#0 1353666306#0 1353666306#1 1353666306#2 996074939#0 996074939#2 996074939#3 533099321#0 533099321#1 533099321#3 533099325#0 533099325#2 -163695776#5 -163695776#3 -163695776#2 -163695776#1 4886703#7 4886703#9 -497385000#1 -205369291#5 -205369291#4 -205369291#2 -205369291#1 -205369291#0 -4365718#13 -4365718#12 -4365718#9 -4365718#7 -4365718#6 -4365718#5 -4365718#4 -4365718#3 -4365718#2 -4365718#1 -1376665366#3 -1376665366#1 -1376665366#0 165396011#0 165396011#2 165396011#3 -165396011#3 -165396011#2 -165396011#1 1376665366#0 1376665366#1 1376665366#2 4411819#0 497384992#0 497384992#1 64417225 318729527 497384990 64417230#0 64417230#2 64417230#3 -4470652#13 -4470652#11 -4470652#9 -4470652#8 -4470652#7 -4470652#6 -4470652#5 -4470652#1 -4470652#0 -4470648#6 -4470648#3 -4470648#2 -4470648#1 -4444323#11 -151543207#5 1287275698#0 1287275698#2 -1287275698#2 -1287275698#0 151543207#4 -4444323#10 -4444323#9 -4444323#8 -4444323#7 -4444323#6 -4444323#5 -4444323#4 -4444323#3 -4444323#2 -4444323#1 278193378 1355321935 1355321934#0 -1381485798#4 -1381485798#2 -1381485798#1 -1202368185 -318729548 -148107872 -1160285448 283005735#0 278193379 4370514 124824611#0 124824611#3 124824611#4 1007837613#0 1007837613#4 4472859#0 4472859#1 4472859#3 4472859#5 4472859#6 4472859#7 4472859#8 4472859#9 1007837616#0 1007837616#1 1007837616#3 298672963#1 298672963#2 729398061#0 1340150766 -1300894377#1 -1300894377#0 956544045#0 1159401180#0 978974357#1 978974357#2 978974357#4 978974357#5 991767986#0 956544035#1 956544035#2 1161152338#0 1161152338#1 978974356#0 298672959#0 298672959#2 298672959#4 298672959#5 298672959#7 -298672959#7 4762493#0 -4762493#1 298672959#7 1193731826#0 1193731831#4 4762494#2 4762494#3 4762494#5 4762494#6 4762494#7 4762494#8 4762494#9 4762494#10 4762494#11 4762494#12 4762494#13 4762494#14 4762494#15 4762494#16 4762494#17 4762494#19 4762494#21 1336519369#0 1336519370 223783617 8112115#0 976000810 315744730 37929957 29248496 4858318 240212900 11019417 223783685 223783683#2 -4858314#2 -4858314#1 54450246#0 1336552428#0 39610477#0 39610477#1 39610477#2 -39610477#3 -39610477#1 -39610477#0 -1336552428#1 -54450246#1 4637689#0 4637689#2 4637689#3 4637689#4 4637689#5 4637689#6 4637689#7 4637689#9 5004411 791299201#1 791299201#2 791299201#3 791299201#5 791299201#8 791299201#10 791299201#11 54563392#0 54563392#2 54563392#4 54563392#7 54563392#8 54563392#9 636612462#0 4886471#0 4886471#1 4886471#2 4886471#3 4886471#5 4886471#8 4886471#9 4886471#11 4886471#13 54563393#0 54563393#2 54563393#3 54563393#4 54450295 124713385#0 124713385#1 124713385#4 124713385#6 124713385#7 124713385#8 124713385#10 124713385#11 124713385#12 124713385#13 124713385#14 124713385#15 124713385#16 124713385#17 124713387 124713389 1186038819#3 1186038819#6 1186038819#8 1186038819#10 1186038819#11 1186038819#12 1186038819#13 183627738#1 129786621#0 129786621#1 129786621#2 -129786621#0 183627738#2 183627738#4 183627738#6 183627738#7 183627738#9 183627738#10 183627738#12 183627738#13 183627738#14 174570310 174569581 174569582#0 174569582#3 174569582#5 174569582#6 174569582#7 174569582#8 174569582#10 174569582#11 174569582#12 174569582#13 174569582#15 174569582#16 174569582#17 174569582#18 174569582#20 174569582#21 174569582#22 174569582#23 174569582#24 174569582#25 174569582#27 174569582#28 174569582#29 174569582#30 174569582#31 174569582#32 174569582#33 239253726 722951136#0 722951136#2 722951136#3 722951136#4 722951135#0 722951135#1 722951135#2 722951135#3 722951135#4 239253724#0 239253724#1 239253724#2 239253724#3 239253724#4 239253724#5 239253724#6 239253724#8 239253724#10 239253724#11 239253724#13 239253724#14 239253724#15 239253724#16 239253724#17 239253724#18 239253724#19 239253724#20 239253724#21 239253724#23 239253724#25 239253724#26 940017607 940017608#1 940017608#2 116786292#1 116786292#2 116786292#3 802293209 906335323#0 906335323#1 722951137#0 722951137#1 722951137#2 722951137#4 172946891#0 172946891#5 172946891#6 166885062#0 166885062#1 166885062#5 166885062#6 166885062#7 166885062#8 166885050#0 166885058 1167511574 1167511576#1 -1167511576#1 -1167511574 -166885058 -166885050#0 -166885062#8 -166885062#7 -166885062#6 -166885062#5 -166885062#4 -166885062#0 -172946891#9 -172946891#5 -172946891#4 -38481075 -722951137#3 -722951137#1 -722951137#0 -906335323#1 -906335323#0 -802293209 -116786292#3 -116786292#2 -116786292#1 -940017608#3 -940017608#1 -940017608#0 -239253724#26 -239253724#25 -239253724#23 -239253724#21 -239253724#20 -239253724#19 -239253724#18 -239253724#17 -239253724#16 -239253724#15 -239253724#14 -239253724#13 -239253724#12 -239253724#10 -239253724#8 -239253724#6 -239253724#5 -239253724#4 -239253724#3 -239253724#2 -239253724#1 -239253724#0 -722951135#5 -722951135#3 -722951135#2 -722951135#1 -722951135#0 -722951136#4 -722951136#3 -722951136#2 -722951136#1 -239253726 -174569582#34 -174569582#32 -174569582#31 -174569582#30 -174569582#29 -174569582#28 -174569582#27 -174569582#25 -174569582#24 -174569582#23 -174569582#22 -174569582#21 -174569582#20 -174569582#18 -174569582#17 -174569582#16 -174569582#15 -174569582#13 -174569582#12 -174569582#11 -174569582#10 -174569582#8 -174569582#7 -174569582#6 -174569582#5 -174569582#4 -174569582#2 -174569581 -298838770#17 -298838770#14 -298838770#13 -298838770#12 -298838770#11 -298838770#10 -298838770#9 -298838770#7 -4637689#26 -4637689#25 -4637689#22 -4637689#20 -4637689#19 -4637689#17 -4637689#16 -4637689#14 -4637689#13 -4637689#12 -4637689#11 -4637689#10 -4637689#8 -4637689#6 -4637689#5 -4637689#4 -4637689#3 -4637689#2 -4637689#1 4858314#0 4858314#2 11019437#0 11019437#1 223783684 124824608 121645777 124824610#0 124824610#1 240212901#0 240212901#1 -29248496 -37929957 -315744730 5072935 1329060366 5072937 802296543#0 802296543#1 116769929#0 116769958 126035848 1347663031 1347663032 956544046#0 1159401181#0 1159401181#2 -1340150764 1300894377#1 1300894377#2 -283005738#6 -283005738#5 -283005738#4 -283005738#2 -283005738#1 -283005738#0 -126035853#7 -126035853#5 -126035853#4 -126035853#3 -126035853#2 -126035853#1 -126035853#0 278193377#0 1160285448 148107872 318729548 1202368185 1381485798#0 1381485798#2 1381485798#3 -1355321934#1 -1355321935 -278193378 -232854826 -764394530#1 -764394530#0 -1289075393 -1014174744#12 -1014174744#11 -1014174744#10 -1014174744#9 -1014174744#8 -1014174744#7 -1014174744#6 -1014174744#5 -1014174744#4 -1014174744#2 -1014174744#1 -4995023 -1289815865 -64417230#8 -64417230#7 -64417230#6 -64417230#4 -64417230#2 -64417230#1 -497384990 39926223#0 39926223#1 -497384992#1 -497384992#0 -4411819#0 -1376665366#3 -1376665366#1 -1376665366#0 -4995025#10 -4995025#9 -4995025#8 -4995025#7 -4995025#3 -4995025#2 -4995025#1 -316241825#3 182564616 995297961#0 995297961#1 995297961#2 995297961#3 995297961#4 995297961#6 995297961#7 4365725#0 160904350 1338562344 995533299 1330893727 995533298#0 995533298#1 1017656016#1 -722951100#2 -997725375 -36834403#2 -36834403#1 -37685623 323465914 799488164 -323465913#1 -23718907 -1207734642#2 -1207734641 -28723370 -36827856#1 -36827855 29240434 866015968 168542236 23692401 23692404 4564576 825474875 35544267#0 35544267#1 35544267#2 35560781#0 225156987 -52285443#1 892479187#0 272490078 351883027 1075546130#0 1075546130#1 272490074 1075546129 273469761 273469764#0 874649441 -1371170204 -1371170205 -43945927 -1252334522#1 -436157732#2 -436157732#1 -23076941#4 -23076941#2 -23076941#1 -309391892#18 -309391892#17 -309391892#16 -309391892#14 -309391892#12 -309391892#11 -309391892#10 -309391892#8 -309391892#7 -309391892#5 -309391892#4 -309391892#3 -309391892#2 -1359873674 -1359873673 -1359873663 1359873664#0 1359873664#1 -4564572#2 -4564572#1 -4564572#0 -1093414185#3 -1093414185#2 -1093414185#1 -1093414185#0 -116521358#5 -116521358#3 -116521358#2 -489272543 -489272523 -489272545#3 -489272545#0 -326049909#6 -326049909#4 -326049909#3 -326049909#2 -326049909#0 -116521376#5 -116521376#1 -116521376#0 -116521351#1 -116521351#0 -1093293197 -43945926#19 -43945926#13 -867119139#1 -4564571 -867119140#1 -867119140#0 -867122401 -5006957#3 -5006957#2 -5006957#1 -5006957#0 -116521355#7 -116521355#6 -116521355#5 -116521355#4 -116521355#3 -116521355#2 -116521355#1 -116521355#0 -819609698 4637691#0 4637691#3 4637691#4 4637691#6 4637691#7 4637691#8 4637691#9 4637691#10 4637691#11 4637691#13 1346896277#0 1346896277#2 130102755#0 115761223#0 115761223#2 115761223#5 115761223#8 115761223#9 -450469086#4 -450469086#3 450469086#2 450469086#4 115761223#10 115761223#11 7979180#0 7979180#1 7979180#2 7979180#3 7979180#6 7979180#7 -7979180#8 -7979180#6 7979180#6 7979180#7 7979180#9 7979180#11 135702881#0 135702881#2 135702881#3 135702881#4 130102735#0 130102735#1 130102735#2 130102735#4 130102735#7 130102735#8 450471788#2 450471788#4 4867539 4867541#0 4867541#2 4867541#4 361384544#0 4930227#0 4930227#1 36893365#0 36893365#2 36893365#3 -1107436765#6 -1107436765#5 -1107436765#4 -1107436765#3 -1107436765#2 -1107436765#1 35564769#0 35564769#2 -392365083#2 392365083#2 -35564769#2 -35564769#1 -1107436765#0 5925381#0 5925381#5 5925381#8 5925381#10 5925381#12 17055406#1 1311729918 435145033#1 435145033#2 435145033#3 435145033#4 1383981494 1383981495 136560682 137050640#0 137050640#1 43945924#0 43945924#1 43945924#2 43945924#3 43945924#4 43945924#5 43945924#7 43945924#8 43945924#9 1161055532#0 1161055532#1 1161055532#2 130102736 130102737#0 35560768#0 35560768#2 35560770#0 35560770#1 35560770#2 35560770#3 35560770#4 -361380079 118942257 -103455617 35560770#8 361380070 -361380070 -35560770#8 103455617 -118942257 5972622 -35560770#4 -35560770#3 -35560770#2 -35560770#1 -35560770#0 35560769#0 35560769#1 -1232088329 -130102736 -1161055532#2 -1161055532#1 -1161055532#0 -43945924#9 -43945924#8 -43945924#7 -43945924#6 -43945924#4 -43945924#3 -43945924#2 -43945924#1 -43945924#0 -137050640#1 -137050640#0 -136560682 -1383981495 -1383981494 -450534291#7 -450534291#6 -450534291#5 -450534291#2 -450534291#1 -450534290#12 -450534290#11 -450534290#10 -450534290#8 -450534290#7 -450534290#6 -450534290#4 -450534290#3 -450534290#2 -450534290#1 -4930227#5 -4930227#4 -4930227#3 -4930227#2 -4930227#1 -4930227#0 -361384544#2 -4867541#4 -4867541#3 -4867541#0 -4867539 43945925#0 80702484#0 80702484#2 376350466#0 376350466#2 376350466#4 -451563847 -4867537 -5006956#28 -5006956#24 -5006956#22 -5006956#21 -5006956#20 -5006956#19 -5006956#18 -5006956#16 -5006956#15 -5006956#14 -5006956#13 -5006956#11 -5006956#10 -5006956#9 -5006956#8 -5006956#7 -5006956#6 -5006956#5 -5006956#4 -5006956#3 -5006956#2 -5006956#1 -815560846#9 -815560846#8 -815560846#7 -815560846#6 -815560846#5 -815560846#3 -815560846#2 -5006958 -77115743#2 -77115743#1 -77115747#5 -77115747#3 -77115747#2 -77115747#0 -364182240#2 -364182240#1 -364182239#1 -35065100#8 -35065100#7 -35065100#5 -35065100#4 -35065100#3 -35065100#2 -35065100#1 -35065100#0 -129146496#7 -129146496#6 -129146496#5 -129146496#4 -129146496#3 -129146496#2 -129146496#1 -35064833#8 -35064833#7 -35064833#6 -35064833#5 -35064833#4 -35064833#3 -35064833#2 -35064833#1 -35064833#0 -282920363#1 -4444448#9 -4444448#6 -4444448#5 -4444448#4 -4444448#3 -4444448#1 -757830690#9 -757830690#7 -757830690#6 -757830690#5 -757830690#4 -757830690#3 -757830690#2 -757830690#1 129146499 4685555 129146498#0 129146498#1 487979975#0 -494418294#0 -8073405#5 -8073405#4 -8073405#2 -494418295#4 -494418295#3 -494418295#2 -494418295#0 300040616#0 141221909#0 1082514308#0 1082514308#1 297335147#0 297335147#1 297335147#3 1306484256#0 1306484256#1 135355975#0 135355975#2 135355975#4 135355975#6 494418276#0 494418275#0 130001848#0 130001848#1 130001848#3 141272700#0 141272700#2 141272700#3 141272700#4 141272700#5 141272700#6 141272700#8 141272700#9 -131827878#7 -131827878#4 -131827878#3 -131827878#1 -131827878#0 -1076682852#0 5608238#2 5608238#4 5608238#5 8073392#0 8073392#1 8073392#2 1029626430#0 1029626430#2 1029626430#3 758688394#2-AddedOnRampEdge 758688394#2 758688394#3 758688394#3-AddedOffRampEdge 144826571 25585502-AddedOnRampEdge 25585502 25585502-AddedOffRampEdge 172569052#1 485459021#0-AddedOnRampEdge 485459021#0 485459021#0-AddedOffRampEdge 42437982 878730059-AddedOnRampEdge 878730059 4989766 1117620821 624713180 125137054#1-AddedOnRampEdge 125137054#1 125137053 279988299-AddedOnRampEdge 279988299 42437990 42437990-AddedOffRampEdge 183063429#0 792164784#0 364487016#0 364487016#2 34890086#0 34890086#1 -34890086#1 -34890086#0 -364487016#2 -364487016#1 -792164784#0 183063429#1 19884437#0-AddedOnRampEdge 19884437#0 1117665599#1 1117665598 1117665597 758688391#0 758688391#1 758688391#2 758688391#3 758688391#4 1117665596 376037659 1079178016 376037662 986031792#0 986031792#1 23011971 1117622083 1117622085 296643025 43973668 1117665630 74152855#0 74152855#1 74152855#2 74152855#3 4472935#0 4472935#2 4472935#3 4472935#5 4472935#7 4472935#8 4472935#9 4472935#10 4472935#11 4472935#12 4472935#13 4472935#14 4472935#15 24649912#0 24649912#1 24649912#2 24649912#3 908811054#0 908811053 -908811053"/>
        <stop lane="-522866676#2_0" endPos="14.63" duration="60.00" parking="1"/>
        <stop lane="4762142#2_0" endPos="118.98" duration="60.00" parking="1"/>
        <stop lane="-23544932#9_0" endPos="66.51" duration="60.00" parking="1"/>
        <stop lane="-24009035#4_0" endPos="64.49" duration="60.00" parking="1"/>
        <stop lane="41791074#0_0" endPos="198.51" duration="60.00" parking="1"/>
        <stop lane="1105974235#2_0" endPos="45.05" duration="60.00" parking="1"/>
        <stop lane="44452602#5_0" endPos="14.79" duration="60.00" parking="1"/>
        <stop lane="-392232683#0_0" endPos="11.21" duration="60.00" parking="1"/>
        <stop lane="475833816#8_0" endPos="6.89" duration="60.00" parking="1"/>
        <stop lane="274825775#3_0" endPos="17.50" duration="60.00" parking="1"/>
        <stop lane="17436114#0_0" endPos="46.69" duration="60.00" parking="1"/>
        <stop lane="-163695776#2_0" endPos="61.20" duration="60.00" parking="1"/>
        <stop lane="165396011#3_0" endPos="67.48" duration="60.00" parking="1"/>
        <stop lane="-1287275698#2_0" endPos="6.19" duration="60.00" parking="1"/>
        <stop lane="124824611#4_0" endPos="13.31" duration="60.00" parking="1"/>
        <stop lane="-298672959#7_0" endPos="0.10" duration="60.00" parking="1"/>
        <stop lane="39610477#2_0" endPos="187.85" duration="60.00" parking="1"/>
        <stop lane="129786621#2_0" endPos="51.86" duration="60.00" parking="1"/>
        <stop lane="129786621#2_0" endPos="89.87" duration="60.00" parking="1"/>
        <stop lane="1167511576#1_0" endPos="5.62" duration="60.00" parking="1"/>
        <stop lane="-450469086#3_0" endPos="157.66" duration="60.00" parking="1"/>
        <stop lane="-7979180#8_0" endPos="10.82" duration="60.00" parking="1"/>
        <stop lane="-392365083#2_0" endPos="29.62" duration="60.00" parking="1"/>
        <stop lane="361380070_0" endPos="87.32" duration="60.00" parking="1"/>
        <stop lane="8073392#0_0" endPos="33.93" duration="60.00" parking="1"/>
        <stop lane="34890086#1_0" endPos="43.41" duration="60.00" parking="1"/>
    </vehicle>
    <vehicle id="courier_1" type="myCourier" depart="0.00">