<?xml version='1.0' encoding='utf-8'?>
<routes xmlns:xsi="http://www.w3.org/2001/XMLSchema-instance" xsi:noNamespaceSchemaLocation="http://sumo.dlr.de/xsd/routes_file.xsd">
    <vType id="myCourier" maxSpeed="160.00" vClass="delivery" />
    <vehicle id="courier_0" type="myCourier" depart="0.00">
        <route edges="-908811053 -908811054#0 -24649912#3 -24649912#2 -24649912#1 -24649912#0 -4472935#15 -4472935#14 -4472935#13 -4472935#12 -4472935#11 -4472935#10 -4472935#9 -4472935#8 -4472935#7 -4472935#6 -4472935#4 -4472935#2 -4472935#1 1117665628#0 1117665628#1 1117665627 296643017 75601197 23607228 168913375 1331885789#0 37715631#0 37715631#1 490099548 490099026#0 763210486#0 763210486#1 37715630#2 172576347#0 43967206#0 43967206#3 43967206#4 43967206#5 43967206#6 23692318#0 23692318#1 23692318#3 23692318#4 23692318#5 23692318#6 23692318#8 23692318#10 23692318#11 23692318#12 23692318#13 23163175#0 23163175#2 23163175#3 23163175#4 783201902 -296744606 -794760160 -34582346#7 -34582346#3 -34582346#2 -34582346#1 4762142#2 -25867133#1 -25867238#14 -25867238#13 -25867238#12 -25867238#11 -25867238#9 906902121#0 906902121#2 906902121#3 -1184888329#0 -25867132#6 -25867132#5 -25867132#3 -25867132#1 43967207#5 23580577 305994915 -790296472#1 -1093414183#3 -1093414183#2 -1093414183#1 1210142523#0 1111749744#2 1111749745#1 1111749745#2 5009977#0 5009977#2 -34571089#3 -34571089#1 -34571089#0 -23544932#9 901665312#0 901665312#1 -305994916#0 -168436895#4 -168436895#2 24607130#0 24607130#3 24607130#5 24607130#6 24607130#8 24607130#10 24607129#0 24607129#2 24607129#3 24607129#4 24607129#5 1126188033#0 -1126188031 -1126182941 -849750317 -1126182937#4 -1126182937#3 -1126182937#2 -1126182937#1 -1126182937#0 -1311276546#1 -1311276545#2 -1311276545#0 -1126182942#8 -1126182942#6 -1126182942#5 -1126182942#4 -1126182942#3 -1126182942#2 -1126182942#1 -1126182942#0 -529186399#1 -634011451#5 -634011451#2 -634011451#1 -1126182938 -1126182939 -529186398#2 -529186398#1 -529186398#0 -996079966#2 -996079966#1 -44151782#4 -44151782#2 -44151782#1 -44151782#0 996080478#0 415056978#0 -291929513 30153759#2 276499867#1 -44151782#2 -44151782#1 -44151782#0 41126181#0 41126181#2 41126181#4 41126181#7 522866783 522866786 1180666224#0 280700217 522848929 283661643#0 25789448#0 37116056 4995172 4717145 522848930 82533225 43945938 43945943 156043139 23912433#0 23205270#0 527195556#0 527195556#2 527195556#3 -28296389#10 -28296389#9 -28296389#8 -28296389#7 -28296389#6 -28296389#4 -28296389#3 -28296389#2 -28296389#1 28321003#0 28321003#2 334324594#2 334324594#3 334324594#4 334324594#7 4587266#0 76964835 193484949 1362557681 974288550#0 1213263823#0 1213263823#1 1213263823#2 1213263823#3 1213263823#4 1213263823#5 1213263823#7 238868636#0 238868636#1 238868636#2 238868636#3 238868636#4 238868636#5 238868636#6 238868636#7 -238868636#7 -238868636#6 -238868636#5 -238868636#4 -238868636#3 -238868636#2 -238868636#1 -238868636#0 -218576118#5 -218576118#1 -218576118#0 -172649782#3 -172649782#1 -36891292#1 -477676294#1 -477676294#0 -477676299 417278469#0 477676301 172649781#0 166130508#3 123535927#0 123535927#1 123535926#0 123535926#1 219653055 219653054#0 219653054#1 219653054#2 219653054#3 36893383 -123535953#21 -123535953#18 -123535953#16 -123535953#15 -123535953#14 -123535953#13 -123535953#12 -123535953#11 1205242324#1 -1205242324#1 123535953#11 123535953#12 123535953#13 123535953#14 123535953#15 123535953#16 123535953#18 123535953#19 123535941 166130506 280940212#0 280940211 397259420#0 280940210#1 280940210#2 280940210#3 280940210#4 280940210#5 -1305097092#1 -1305097092#0 1305097093#0 -238868636#33 -1127704797#1 10698402#3 10698402#4 10698402#6 10698402#8 10698402#9 38331253#0 38331253#2 38331253#3 38331253#4 38331253#5 38331253#7 38331253#8 1117011058#0 974288547#0 23909988#0 23909988#3 23909988#4 38331253#7 38331253#8 38331253#10 38331253#14 38331253#17 38331253#20 38331253#21 91609489#4 91609489#5 160947896#0 1009727597 241026318 28539144 240657404#0 240657404#1 240657407 45278101 116978515 116980863 265039906 22901082#0 219912708#0 219912708#1 219912708#2 219912708#3 219912722 172060619#0 172060619#1 172060619#2 172060619#3 152598683#0 152598683#2 152598683#3 152598683#4 152598683#5 -377963796#1 -111627668#9 111627668#0 377963796#0 152598683#6 152598683#7 152598683#8 152598683#9 152598683#10 1271678861 183593435#0 183593435#2 183593442 297919619#0 183593437 1376128971#0 1376128971#1 1376128971#3 1376128972#0 22901083#0 22901083#1 117716825 219912750#0 219912750#1 219912750#2 275795700 242638637 265039907 272490076 511790849 272490075 511790848 511791094 29103589 511791090 160947894 160947890 28743756 1009727597 241026318 28539144 240657404#0 240657404#1 148175231#0 148175231#2 148175231#3 148175231#4 476905228#0 476905224 240657401#0 240657401#2 240657401#4 240657401#5 240657401#6 240657401#7 240657401#8 240657401#9 240657401#11 240657401#12 -240657401#13 240657401#12 240657401#14 240657401#15 25609733#0 25609733#2 25609733#3 25609733#4 25609733#5 25609733#6 -553096445#6 -553096445#4 -553096445#3 -553096445#2 126549149#25 126549149#26 126549149#27 126549149#29 126549149#30 126549149#31 -1144915478#1 217538716#12 126549149#32 126549149#34 126549149#35 126549149#36 126549149#37 126549149#39 126549149#41 126549149#42 126549149#44 126549149#45 126549149#47 126549149#50 126549149#54 126549149#55 126549149#56 126549149#57 126549149#58 126549149#60 126549149#61 126549149#63 126549149#65 126549149#66 126549149#68 126549149#69 126549149#70 126549149#71 280238426#1 280238426#2 126549146#0 126549146#1 126549146#2 126549146#5 126549146#7 126549146#8 126549146#9 4762568#0 4762568#2 4762568#3 4762568#4 762321522#0 1161152333 1344557827 1161152331 126549153 266437164#2 266437164#3 266437164#4 266437164#5 266437164#8 266437164#9 1329488202#0 1329488202#2 1329488202#3 1329488202#4 1329488205#1 -1329488203#2 -364739273#14 -364739273#13 -364739273#11 -364739273#9 -364739273#8 -364739273#6 -364739273#5 -364739273#4 -364739273#3 -364739273#2 -364739273#1 -1338705631#2 -1338705631#1 -1338705631#0 -1127747666 -128478853#8 -128478853#7 -128478853#3 -128478853#2 -128478853#1 -493682426#9 -493682426#6 -493682426#5 -493682426#4 -493682426#3 -493682426#2 -493682426#1 -493682426#0 -281533076#3 -281533076#0 -1296335960#2 -1296335960#1 25698330#0 897170932#0 -897170932#1 -25698330#0 1296335959 688227943#0 897170933 -897170933 -688227943#0 -1296335959 1296335960#0 1296335960#2 281533076#0 281533076#1 493682426#0 493682426#1 493682426#2 493682426#3 493682426#4 493682426#5 493682426#6 493682426#7 128478853#0 128478853#2 128478853#3 128478853#4 29020111 1338705631#0 1338705631#1 1338705631#2 1338705635 364739273#2 364739273#3 364739273#4 364739273#5 364739273#6 -222027342 -1245256631 -8662983#2 1245256628 -1245256628 -8662983#1 965766447 372583632#11 1355639987#0 374921930#4 374921930#5 374921930#6 374921930#7 374921930#9 374921930#10 374921930#11 374921930#12 374921930#13 374921930#14 374921930#16 374921930#17 374921930#18 374921930#19 374921930#20 374921930#21 374921930#22 374921930#23 242406282#0 242406282#1 242406282#2 242406282#3 242406282#4 242406282#5 242406282#6 152286299#0 152286299#2 152286299#3 152286299#4 -152286291#1 -152286291#0 217284459#1 -150854691#10 -150854691#9 -150854691#8 -150854691#7 124420950#0 -124338807#2 380542180 -380542180 -124338807#1 -124338807#0 103893151#1 150854689 114012081#0 114012081#2 114012081#3 114012081#4 114012081#6 114012081#7 114012081#8 -217304504 -217286621#1 150855042#0 150855042#1 150855042#2 124457029#5 -150855003 150855003 124457029#6 124457029#7 150854999 -43992430#18 -43992430#17 -43992430#16 -43992430#14 -150854970 -153234013#5 -153234013#4 124457031 43992430#10 43992430#12 43992430#14 43992430#16 43992430#17 43992430#18 43992430#19 -150855016 -217482880#0 124457027 43992430#23 -124457040 -217482628#3 124457039 43992430#26 124457035#0 124457035#1 -124457029#2 -124457029#1 -124457029#0 -114012077#2 -114012077#0 114012089#4 -217187993#7 -103966377#2 -103966377#1 -1188907641#1 -1188907641#0 -150854965#3 -150854965#2 -150854965#0 -103966362#3 -103966362#0 -153688235 218257882#2 218257882#3 218257882#4 218257882#5 218257882#7 1296325604#0 1296325604#2 1296325604#3 1296325604#4 1296325604#5 1296325604#6 1296325604#7 1119791420 693311155#0 693311155#1 822157374 380542183#0 380542183#1 380542183#2 372583632#0 372583632#1 372583632#2 372583632#3 372583632#4 372583632#6 372583632#7 372583632#8 372583632#9 372583632#11 1355639987#0 1355639987#1 1329488204#0 43992437#0 43992437#1 43992437#2 43992437#3 374921929#0 374921929#2 374921929#3 374921929#4 374921929#6 374921929#8 374921929#9 1288653554#0 1288653554#2 1288653554#3 1288653554#4 1288653554#6 585690443#0 1339500783#13 1339500783#14 1288653557#4 1288653557#5 1288653557#6 87575592#0 87575592#3 87575592#7 87575610 87575592#13 -87575591 -87575592#6 -87575592#1 1288653557#7 1288653557#8 822297674#0 822297674#2 822297674#3 822297674#5 822297674#6 822297674#7 374921929#8 374921929#9 1288653554#0 1288653554#2 1288653554#3 1288653554#4 1288653554#6 585690443#0 585690443#1 585690443#5 585690443#6 585690443#9 585690443#10 585690443#11 585690443#13 36826508#0 -144932769#21 -144932769#18 -144932769#14 -144932769#2 585690443#17 429166134#0 429166134#2 -60334585#9 -60334585#7 -60334585#6 -60334585#5 -60334585#4 60334585#0 60334585#5 60334585#6 60334585#7 -174289045#1 -174289040#6 -174289040#5 1024555458#0 1217311589#0 218878781#5 825955793#0 825955793#2 825955793#3 825955793#4 429166135#2 240657399#1 240657399#2 240657399#3 240657399#4 1288653555#1 1288653555#2 1288653555#3 1009738215#0 1009738215#1 1009738214 25610033#0 25610033#1 28503617#0 511789894 397259433 43992441 37732348 429166132 511778380 28450693 130442121#0 130442121#1 130442121#2 130442121#3 511779046#0 757950454 126049642#0 -69682329#6 -69682329#5 -69682329#4 -69682329#3 -69682329#2 -69682329#1 -165726546#2 -35041451#6 -35041451#5 -35041451#4 -35041451#3 -35041451#1 25788999#0 25788999#2 25789003#0 25789003#1 25789003#2 25789003#3 25789003#4 25789003#5 25789003#6 25789003#7 -636535730 -25789003#6 -25789003#5 -25789003#4 -25789003#3 -25789003#2 -25789003#1 -25789003#0 -25788999#2 -25788999#1 -35041451#0 5737035#0 130442121#0 130442121#1 130442121#2 130442121#3 511779046#0 757950454 757950455 757950460 761850573 126049638 757950459 761850575 126049646#0 157075042 -190613744#19 -1166317574#2 -132549303#5 -153146981#12 -153146981#10 -153146981#9 -153146981#6 -153146981#1 -153146981#0 153146981#0 153146981#1 153146981#2 153146981#7 153146981#10 153146981#11 132549303#5 1166317574#0 190613744#19 -157075042 126049647#0 429166142 757950453 126049634 429166145 757950454 126049642#0 -69682329#6 -69682329#5 -69682329#4 -69682329#3 -69682329#2 -69682329#1 -416956808#2 -416956808#0 -36965025#18 -36965025#17 -36965025#16 -36965025#14 -36965025#13 -36965025#12 -36965025#11 -36965025#10 -36965025#9 -36965025#8 -36965025#7 -36965025#6 -36965025#5 -36965025#4 -36965025#3 -36965025#2 -36965025#1 -36965025#0 27484955#0 27484955#1 27484955#2 76964840 19848676#0 19848676#2 -248983450#1 -76964839#3 -1254556262 76964839#1 1180456367 -1111206649 76964839#2 76964839#3 4853274#0 4853274#2 35779074#0 35779074#1 35779074#2 4853275#0 76964836 -65010196#8 -65010196#6 -65010196#4 -65010196#3 -65010196#2 -65010196#1 -65010196#0 -165726547#9 -165726547#8 -165726547#5 -165726547#3 -165726547#2 -165726547#1 -86383735#14 -86383735#12 -86383735#11 -86383735#10 -86383735#7 -86383735#6 -86383735#5 -86383735#4 -86383735#3 -86383735#2 -86383735#1 -86383736#19 -86383736#17 -86383736#16 -86383736#15 -86383736#14 -86383736#13 -86383736#12 -86383736#11 -86383736#10 -86383736#9 -86383736#8 -86383736#7 -86383736#6 -86383736#4 -86383736#2 -86383736#1 86383731#0 86383731#2 86383731#3 86383731#4 5768394#0 5768394#2 10699928#0 10699928#2 90456739#0 90456742#0 90456742#1 -90456742#1 -90456742#0 -90456739#0 -10699928#3 -10699928#1 -5768394#3 -5768394#1 -86383731#4 -86383731#3 -86383731#2 -86383731#1 -441293054#10 -441293054#6 -441293054#5 -441293054#4 -441293054#3 -441293054#1 -441293054#0 -142109132#1 -4676917#12 -4676917#10 -4676917#9 -4676917#8 -4676917#7 -4676917#6 -4676917#4 -4676917#3 -4676917#2 -4676917#1 -4676917#0 -1335041825#1 891050267 4398659#1 4398659#2 4398659#3 4398659#4 4398659#5 4398659#6 4398659#9 4398659#10 4398659#12 4398659#13 54930287#0 54930287#2 54930287#3 54930287#4 54930287#5 54930287#6 54930287#7 54930287#8 54930287#10 54930287#11 54930287#13 -4660587#7 -4660587#6 -4660587#5 -4660587#4 -1060828882 1060828882 4660587#4 4660587#5 4660587#6 4660587#7 -54930287#14 -54930287#11 -54930287#10 -54930287#9 -54930287#7 -54930287#6 -54930287#5 -54930287#4 -54930287#3 -54930287#2 -54930287#1 4398659#14 4398659#15 4398659#16 4398659#18 4398659#19 4398659#22 4398659#23 4398659#25 4398659#26 29315850#0 -891050264#6 -891050264#5 -891050264#3 -891050264#2 -891050264#1 -132684568#20 -132684568#19 -132684568#18 -132684568#17 -132684568#15 -132684568#14 -132684568#13 -132684568#12 -132684568#11 -132684568#10 -132684568#9 54357965#0 54357965#2 54357965#4 54357965#5 54357965#6 54357965#8 54357965#9 54357965#10 54357965#12 54357965#13 276984325#0 4473058#0 4473058#4 4473058#5 4473058#8 4473058#11 4473058#12 4473058#14 4473058#16 4473058#17 4473058#18 4473058#19 4473058#20 4473058#21 4473058#22 4473058#23 4473058#24 4473058#25 4473058#26 4473058#27 4473058#28 4473058#29 4473058#30 4473058#32 4473058#33 4473058#35 4473058#36 4473058#37 4473058#38 4473058#39 4473058#40 4473058#43 4473058#44 4473058#45 4473058#48 4473058#51 4473058#52 4473058#54 4473058#55 -792130300#10 -792130300#8 -792130300#6 -792130300#5 -792130300#4 -792130300#3 24708713#0 24708713#1 -1056263235 1056263235 -24708713#1 -24708713#0 792130300#3 792130300#4 792130300#5 792130300#6 792130300#8 792130300#9 4473058#56 4473058#57 4473058#58 4473058#60 4473058#63 4473058#65 -829683526#2 -829683526#0 56315958#0 892363667 -892363667 -56315958#0 844700191#0 892363665 -892363665 -844700191#0 792130302#11 829683526#1 789003167#0 789003167#1 789003167#3 789003167#4 789003167#5 789003167#6 789003167#7 789003167#8 789003167#9 789003167#10 789003167#11 789003167#12 789003167#13 810605035#0 810605035#1 810605035#2 810605035#4 810605035#5 810605035#6 810605035#7 810605035#8 133721316#0 133721316#2 133721316#3 133721316#4 133721316#6 133721316#9 133721316#10 133721316#12 133721316#13 133721316#14 -974288555#1 -974288555#0 24649912#0 24649912#1 24649912#2 24649912#3 908811054#0 908811053 -908811053" />
        <stop lane="4762142#2_0" endPos="118.98" duration="60.00" parking="1" />
        <stop lane="-23544932#9_0" endPos="66.51" duration="60.00" parking="1" />
        <stop lane="415056978#0_0" endPos="12.09" duration="60.00" parking="1" />
        <stop lane="-238868636#6_0" endPos="10.51" duration="60.00" parking="1" />
        <stop lane="1205242324#1_0" endPos="44.00" duration="60.00" parking="1" />
        <stop lane="38331253#4_0" endPos="77.18" duration="60.00" parking="1" />
        <stop lane="974288547#0_0" endPos="50.87" duration="60.00" parking="1" />
        <stop lane="377963796#0_0" endPos="98.68" duration="60.00" parking="1" />
        <stop lane="-240657401#13_0" endPos="81.24" duration="60.00" parking="1" />
        <stop lane="-1144915478#1_0" endPos="30.52" duration="60.00" parking="1" />
        <stop lane="897170933_0" endPos="168.13" duration="60.00" parking="1" />
        <stop lane="1245256628_0" endPos="217.79" duration="60.00" parking="1" />
        <stop lane="-380542180_0" endPos="17.44" duration="60.00" parking="1" />
        <stop lane="150855003_0" endPos="160.10" duration="60.00" parking="1" />
        <stop lane="150854999_0" endPos="43.26" duration="60.00" parking="1" />
        <stop lane="124457031_0" endPos="20.64" duration="60.00" parking="1" />
        <stop lane="-150855016_0" endPos="106.54" duration="60.00" parking="1" />
        <stop lane="-124457040_0" endPos="124.75" duration="60.00" parking="1" />
        <stop lane="-153688235_0" endPos="39.65" duration="60.00" parking="1" />
        <stop lane="87575610_0" endPos="134.03" duration="60.00" parking="1" />
        <stop lane="-144932769#18_0" endPos="67.78" duration="60.00" parking="1" />
        <stop lane="-60334585#4_0" endPos="46.73" duration="60.00" parking="1" />
        <stop lane="-636535730_0" endPos="101.55" duration="60.00" parking="1" />
        <stop lane="153146981#2_0" endPos="2.47" duration="60.00" parking="1" />
        <stop lane="-1111206649_0" endPos="0.10" duration="60.00" parking="1" />
        <stop lane="-90456742#1_0" endPos="56.08" duration="60.00" parking="1" />
        <stop lane="1060828882_0" endPos="0.10" duration="60.00" parking="1" />
        <stop lane="1056263235_0" endPos="12.63" duration="60.00" parking="1" />
        <stop lane="-892363667_0" endPos="0.10" duration="60.00" parking="1" />
        <stop lane="-892363665_0" endPos="0.10" duration="60.00" parking="1" />
    </vehicle>
    <vehicle id="courier_1" type="myCourier" depart="0.00">