<?xml version="1.0" encoding="UTF-8"?>

<!-- generated on 2025-05-16 15:19:48 by Eclipse SUMO duarouter Version 1.22.0
<duarouterConfiguration xmlns:xsi="http://www.w3.org/2001/XMLSchema-instance" xsi:noNamespaceSchemaLocation="http://sumo.dlr.de/xsd/duarouterConfiguration.xsd">

    <input>
        <net-file value="simulation_files/map.net.xml"/>
        <route-files value="experiments/experiment_9_2/courier.trips.xml"/>
    </input>

    <output>
        <output-file value="experiments/experiment_9_2/courier.rou.xml"/>
    </output>

    <report>
        <verbose value="true"/>
    </report>

</duarouterConfiguration>
-->

<routes xmlns:xsi="http://www.w3.org/2001/XMLSchema-instance" xsi:noNamespaceSchemaLocation="http://sumo.dlr.de/xsd/routes_file.xsd">
    <vType id="myCourier" maxSpeed="160.00" vClass="delivery"/>
    <vehicle id="courier_0" type="myCourier" depart="0.00">
        <route edges="-908811053 -908811054#0 -24649912#3 -24649912#2 -24649912#1 -24649912#0 -4472935#15 -4472935#14 -4472935#13 -4472935#12 -4472935#11 -4472935#10 -4472935#9 -4472935#8 -4472935#7 -4472935#6 -4472935#4 -4472935#2 -4472935#1 1117665628#0 1117665628#1 1117665627 296643017 75601197 23607228 168913375 1331885789#0 37715631#0 1281160609 1283310926#1 -8072830 1117665613#1 1331885787 168913376 298894521 1117665612 1117665611 4760137#0 161157238#0 -25751069#14 -25751069#13 -25751069#11 -25751069#10 -25751069#9 -25751069#8 -25751069#7 -25751069#5 -25751069#4 -25751069#3 -25751069#2 -25751069#1 522866676#2 522866676#3 794760159#0 794760159#1 5608242#0 791793605#0 791793605#2 159090919#12 -794753775#10 -794753775#9 -794753775#7 -794753775#5 -794753775#4 -794753775#3 -794753775#2 -794753775#0 -5150696#2 -5150696#1 -5150696#0 -769769899#3 -769769899#1 -769769899#0 -86484370#11 -86484370#9 -86484370#8 -86484370#7 -86484370#6 -86484370#5 -86484370#4 -86484370#2 -86484370#1 -86484370#0 -4762051#3 -4762051#2 -4762051#1 -4762051#0 23692331#0 23692331#1 23692331#2 23692331#3 755686004#0 755686004#1 755686004#2 755686004#4 755686004#5 827099637#1 755686002#0 755686002#2 755686002#3 -24009035#7 -24009035#6 -24009035#4 24009035#0 24009035#6 24009035#7 -755686002#4 -755686002#2 -755686002#0 -827099637#1 -755686004#5 -755686004#4 -755686004#3 -755686004#1 -755686004#0 -23692331#3 -23692331#2 -23692331#1 -23692331#0 4762051#0 4762051#1 4762051#2 4762051#3 86484363#0 86484363#2 86484363#3 86484363#4 86484363#5 280227989#0 280227989#1 86484364#0 86484364#2 86484364#3 86484364#4 86484364#5 86484364#6 86484364#7 -43967206#6 -43967206#5 -43967206#4 -43967206#3 -43967206#2 43967207#0 43967207#5 23580577 305994915 29240754#1 -799488152 -799488153 -799488154 -188503276 -799488155 -799488156 -106168572 -799488157 -799488158#1 -799488158#0 -72265692 -448536967 -448493739#2 -1318324856#3 778415612#0 -778415612#1 1318324856#1 63950614#0 63950614#3 63950614#4 63950614#5 63950614#6 63950614#7 44277751#0 44277751#2 44277751#4 44277751#5 4389897#0 4389897#2 4389897#3 797825621#0 797825621#2 797825621#7 797825621#8 797825621#9 625749091 797825620#0 797825620#1 797825620#3 69683715#0 286334156#0 286334156#2 -213904104#1 218020965#0 -528717307#8 4798776#0 411717389 -411717389 -4798776#0 -528717307#6 -528717307#5 -528717307#4 -528717307#2 1126042571#0 1126042571#1 1126042571#2 528717306#0 362862812#0 -362862812#3 -528717306#1 1126042570#0 1126042570#2 -1126042569 -1126182936#3 -1126182936#2 -797250441#4 -797250441#1 -797250441#0 -1126188034#1 -247364230#3 -247364230#2 -247364230#1 -247364230#0 147497982#0 147497982#1 238394699#0 171029341 171029340 147498082#0 147498082#1 147498082#2 1074537496 274492668#0 274492668#1 147498100 188354437 188354433 43945931#0 43945931#2 129146497 23262315 23262316 268074841 792446264 37770949 23692402 168542235 168542234 36827855 36827856#0 28723370 1207734641 1207734642#0 28723369#0 323465913#0 -799488163 -323465914 37685623 36834402#0 329587357#0 43967209#0 98574691#0 98574691#2 98574691#3 -266437160#4 -266437160#2 266437160#0 266437160#3 163787656#0 72104446 799488165 799488166 799488167 1354873356 729375539#0 729375539#2 4367290#0 4367290#2 4367290#4 4367290#6 36834407#0 1230785411 1230785410#0 38788863#0 1252323014 1252323013#0 82532355 72139828#0 528297276#0 1290832984 712138718 712138720 712138719 712138725 712138721#0 712138724 712138723 712138722 712138726 712138728 712138730 712138729 325168914#0 739431063#0 739431063#2 739431063#3 739431063#5 1360294346#0 354585069#0 103917871#1 739431064#13 1360294346#0 1360294346#2 1360294346#3 -1347540738#9 -1347540738#7 -1347540738#6 -1347540738#5 -1347540738#3 -1347540738#2 -1347540738#1 -1347540738#0 -1302485715#1 -1347540737#1 -1343768981#5 -1343768981#4 -1343768981#3 -154944316#7 910324730 -910324730 154944316#4 1343768981#2 1343768981#4 1343768981#5 1347540737#0 1302485716 197830618#2 -42423494#21 -42423494#18 -42423494#17 -42423494#15 -42423494#13 -42423494#12 -42423494#11 11016780#0 11016780#2 11016780#3 11016780#4 11016780#5 1087354036#0 -335032850#4 -335032850#3 -335032850#2 -335032850#1 -1372011670#2 -1372011670#0 -122740412#1 4375039#0 512385570 11016787 4370179 172111592#0 172111593#0 172111593#2 172111593#3 172111593#4 37850961#0 37850961#3 37850961#4 37850961#6 37850961#7 37850961#10 37850961#11 37850961#12 37850961#13 37850961#14 37850961#15 37850961#16 37850961#17 37850961#19 37850961#21 37850961#22 37850961#23 37850961#24 37850961#25 -165718095#7 -165718095#4 -165718095#0 -1234278744#7 -1234278744#6 -1177576154#2 1177576154#0 1234278744#6 1234278744#7 165718095#0 165718095#1 165718095#5 37850961#26 11016788#0 71507366#0 71507366#1 761824812 761824811 359822754#0 359822754#2 359822754#3 359822754#4 359822754#5 172111594#0 172111594#2 172111594#3 5072875#0 157483192#0 157483192#1 157483192#2 157483192#3 85640909#0 85640909#2 85640909#3 37850958#0 653726587#0 653726587#1 653726587#2 653726587#3 653726587#4 653726587#5 653726587#6 653726587#8 653726587#9 653726587#10 653726587#11 653726587#12 38749991#0 38749991#1 125496648#0 125496648#1 60173491#0 60173491#2 60173491#4 60173491#5 129129354#0 129129354#2 129129354#6 129941217#0 37711341#0 799468608 799468609 517085673 799468610 799468611#0 142028450 799468612 151520593 1013412277#0 69256823#0 138467944 799468614 799468615 799468617 799468618#0 511792979#0 151520592 151520594 511793668 511793672#0 151520603 479499053#0 -139040210#7 -139040210#3 -139040210#1 -139040210#0 -161765454 -20007872 95067027#0 95067027#2 95067027#4 479748274#0 479748274#2 184349364#8 184349364#9 -300334267#6 1159132993 377438957#0 377438957#1 -377438958#1 -4849850#3 92202426#0 377438955#0 -377438955#1 -92202426#1 -4849850#2 -4849850#0 -300334169#0 24257990#10 24257990#11 223783017#0 223783017#1 223783018#0 223783018#2 243317949#0 259582942 -226887650 -49895467#1 -674252254#1 674252317#0 -674252317#3 674252254#1 762101177#0 825955792#0 825955792#1 4727666#0 4727666#1 4727666#2 4727666#3 -7994502#12 7994502#11 -7994502#12 -19886578#5 -19886578#3 -19886578#2 -19886578#1 -4470501#4 -4470501#3 -4470501#2 -4470501#1 240058455#0 240058455#1 240058455#2 240058455#3 -51095590#39 -51095590#38 -51095590#37 -51095590#36 -51095590#34 -51095590#33 -51095590#31 -51095590#29 -51095590#27 -51095590#26 -51095590#24 -51095590#23 -51095590#22 -51095590#21 -51095590#19 -51095590#18 -51095590#17 -51095590#14 -51095590#12 -51095590#10 -51095590#9 -51095590#8 -51095590#6 -51095590#5 -51095590#4 -51095590#3 -51095590#2 43992449#0 1267964361 26702971#0 121189377#0 121189377#1 26702970 -51096212#1 24064061#0 24064061#1 24064061#3 24064061#4 24064061#5 462372657#0 462372648 -462372648 -462372657#1 24064061#7 24064061#9 24064061#11 365477365#0 24064067#0 113600066#4 -24064061#10 -24064061#8 -24064061#6 -24064061#4 -24064061#3 -24064061#2 -24064061#0 51096212#0 51096210#0 51096210#1 144056296#0 144056296#3 144056296#4 144056296#5 38192984#0 38192984#1 38192984#3 38192984#4 38192984#5 117726680 603718194#0 521576129 521576128 755628503 1077409068 1077409067 1077409066 61919127 61919126#0 183705365 200499719#0 200499719#1 -603722362#1 -166804899#5 -166804900 -166807467#5 -166807467#4 -166807467#1 -755628498#28 -755628498#26 -755628498#25 -755628498#23 -755628498#21 -755628498#20 -755628498#18 -755628498#17 -755628498#16 -755628498#14 -755628498#11 -755628498#10 -755628498#9 -755628498#8 -755628498#7 -755628498#6 -755628498#5 -755628498#3 -755628498#2 -755628498#1 -755628498#0 37883948#0 37000700#0 -223726584#1 -223726584#0 -1063207941#2 1063232980 129136039#5 223726592#0 -1063232987#1 -1063232988#2 -218983460#13 1286838927#0 1297736029 -1297736029 -1286838927#0 218983460#11 1063232988#0 1063232987#0 365470848#0 129136039#7 129136039#0 129136039#1 129136039#2 129136039#3 129136052#0 1063232989#0 223726584#0 223726584#1 -37000700#1 -37883948#1 -553096444 -4928747#11 -4928747#1 -4928747#0 956154484#0 693765715#5 995187951#0 373229394 373229515 373229393 373229396 373231015 132993737 41214803#1 41214803#2 157716502#2 809601529#0 157716505#0 157716505#1 157716503#0 157716503#1 157716503#3 157716503#4 157716503#5 157716503#6 157716503#7 157716503#8 157716503#10 157716503#13 924408371 29020403 330333300 1079723245 1077409063 1077409064 266413515 266413518 266413516#0 266413516#1 22878128 759350393#0 29103606 -169458366 -392273793 -641957964 -36890914 -649745180 -641956029 -36890917 -641956030 -681607914 -681607912 -435129060 -681607911 -691602090 -876293643 -876288983 -876288982 -876288981 -876288980 -876288979 -650198087 -650198085 17505017#0 17505017#2 -711623187#15 -711623187#13 -711623187#12 -711623187#11 1102727576#0 -1120298404#6 1120298405#0 1120298406#0 1120298407#0 1120298407#2 1120298407#3 1120298407#4 -641890635#1 1102733686 1102733687#0 171297634#0 171297634#1 168034393#0 168034393#1 172063362 158670956#0 158670956#2 158670956#3 158670956#6 158670956#8 1354636739#0 43945954#0 240331256 1112561420#0 1112561615#0 1112561615#2 1283252667#0 43945952#0 43945952#1 43945952#2 1180064017#0 1180064015#0 1180064015#1 4414841#0 4414841#2 4414841#3 4414841#4 4414841#5 -22888744#6 -22888744#5 -22888744#3 -396681991#3 -396681991#1 -396681991#0 396681960 -396681960 -174136433#3 -174136433#2 -174136433#1 -174136433#0 -174136432#6 -174136432#3 -174136432#2 -174136432#1 -22888743#2 -22888743#1 -22888743#0 -1175579848#1 174136418 40221762#0 40221762#2 476905247#0 476905247#1 300874149#0 174141629#0 511791593 74307580 168967788 511790417 116981274 160947894 160947890 28743756 1009727597 241026318 240657405 1097668783#0 1213263824#0 -974288548#12 -974288548#11 -974288548#10 -974288548#8 -974288548#7 -974288548#5 -974288548#4 -974288548#3 -974288548#2 -974288548#1 -1305097092#4 -1305097092#3 -1305097092#1 -1305097092#0 1305097093#0 -238868636#33 -1127704797#1 10698402#3 10698402#4 10698402#6 10698402#8 10698402#9 38331253#0 38331253#2 38331253#3 38331253#4 38331253#5 -23909988#5 -23909988#3 -23909988#2 -1203436405#5 -1305097092#1 -1305097092#0 1305097093#0 -238868636#33 -238868636#32 -238868636#31 -238868636#30 -238868636#29 -238868636#27 -238868636#26 -238868636#25 -238868636#24 -238868636#23 -238868636#21 -238868636#20 -238868636#18 -238868636#16 -238868636#14 -238868636#13 -238868636#12 -238868636#10 -238868636#8 -238868636#7 -238868636#6 -238868636#5 -238868636#4 -238868636#3 -238868636#2 -238868636#1 -238868636#0 23263288#0 23263288#2 23263288#4 23263288#5 23263288#7 23263288#8 23263288#9 23263288#10 23263288#12 23263288#13 156167921#0 156167921#1 156167921#4 156167921#5 156167921#7 212045792#0 -212045792#1 156167921#9 156167921#10 163534649#0 163534649#3 163534649#5 163534649#8 163534649#9 163534649#10 163534649#11 163534649#12 947921777#0 947921776 334834352 -1070769223#2 -1070769223#1 -1070769223#0 -126549145#4 -126549145#2 -126549145#1 -126549145#0 -932979856#3 -932979856#2 -932979856#0 1052331938#0 932979866#0 -132397213 38749145 1303678631#1 -909972361#3 -909972361#0 909972361#0 909972361#1 -1303678631#1 -1303678631#0 -932979863 4705959#0 -28296399#8 -28296399#6 -28296399#4 -28296399#3 -28296399#2 -28296399#1 -160947893#3 -160947893#1 -160947893#0 160947897 712138712#1 160947887 172113408 160947889 37262922 27133331 406784581 27133503 122479041#0 122479041#1 27133505 27133603 38345603 19885704 50915791 348346524 348346522 348346519 47145433 132397536#0 37713616#0 1117665592 1117665591 1117665590 23016374 52347620#1 197637379#0 -819355479 121334221#0 325384114#0 325384114#1 325384114#2 -325384114#2 -325384114#1 -325384114#0 -121334221#1 -86484366 86484366 819355479 790296473 75601194#0 1117665589 31509769 -277166725#3 -277166725#1 -23908703#7 -23908703#6 -23908703#5 -23908703#3 -23908703#2 -23908703#0 4473058#0 4473058#4 4473058#5 4473058#8 4473058#11 4473058#12 4473058#14 4473058#16 4473058#17 4473058#18 4473058#19 4473058#20 4473058#21 4473058#22 4473058#23 4473058#24 4473058#25 4473058#26 4473058#27 4473058#28 4473058#29 4473058#30 4473058#32 4473058#33 4473058#35 4473058#36 4473058#37 4473058#38 4473058#39 4473058#40 4473058#43 4473058#44 4473058#45 4473058#48 4473058#51 4473058#52 4473058#54 4473058#55 4473058#56 4473058#57 4473058#58 4473058#60 4473058#63 4473058#65 789003167#0 789003167#1 789003167#3 789003167#4 789003167#5 789003167#6 789003167#7 789003167#8 789003167#9 789003167#10 789003167#11 789003167#12 789003167#13 810605035#0 810605035#1 810605035#2 810605035#4 810605035#5 810605035#6 810605035#7 810605035#8 133721316#0 133721316#2 133721316#3 133721316#4 133721316#6 133721316#9 133721316#10 133721316#12 133721316#13 133721316#14 -974288555#1 -974288555#0 24649912#0 24649912#1 24649912#2 24649912#3 908811054#0 908811053 -908811053"/>
        <stop lane="791793605#2_0" endPos="103.08" duration="60.00" parking="1"/>
        <stop lane="-24009035#4_0" endPos="64.49" duration="60.00" parking="1"/>
        <stop lane="4798776#0_0" endPos="65.72" duration="60.00" parking="1"/>
        <stop lane="-362862812#3_0" endPos="20.15" duration="60.00" parking="1"/>
        <stop lane="-266437160#2_0" endPos="0.73" duration="60.00" parking="1"/>
        <stop lane="103917871#1_0" endPos="35.95" duration="60.00" parking="1"/>
        <stop lane="-910324730_0" endPos="35.77" duration="60.00" parking="1"/>
        <stop lane="11016780#2_0" endPos="26.44" duration="60.00" parking="1"/>
        <stop lane="-1177576154#2_0" endPos="20.46" duration="60.00" parking="1"/>
        <stop lane="377438955#0_0" endPos="57.44" duration="60.00" parking="1"/>
        <stop lane="7994502#11_0" endPos="79.15" duration="60.00" parking="1"/>
        <stop lane="-19886578#1_0" endPos="41.67" duration="60.00" parking="1"/>
        <stop lane="-462372648_0" endPos="0.10" duration="60.00" parking="1"/>
        <stop lane="24064067#0_0" endPos="66.68" duration="60.00" parking="1"/>
        <stop lane="-1297736029_0" endPos="0.10" duration="60.00" parking="1"/>
        <stop lane="1102727576#0_0" endPos="125.01" duration="60.00" parking="1"/>
        <stop lane="396681960_0" endPos="5.92" duration="60.00" parking="1"/>
        <stop lane="38331253#4_0" endPos="77.18" duration="60.00" parking="1"/>
        <stop lane="-238868636#6_0" endPos="10.51" duration="60.00" parking="1"/>
        <stop lane="212045792#0_0" endPos="4.43" duration="60.00" parking="1"/>
        <stop lane="-909972361#0_0" endPos="15.56" duration="60.00" parking="1"/>
        <stop lane="-325384114#2_0" endPos="23.75" duration="60.00" parking="1"/>
    </vehicle>
    <vehicle id="courier_1" type="myCourier" depart="0.00">