<?xml version="1.0" encoding="UTF-8"?>

<!-- generated on 2025-05-16 15:15:17 by Eclipse SUMO duarouter Version 1.22.0
<duarouterConfiguration xmlns:xsi="http://www.w3.org/2001/XMLSchema-instance" xsi:noNamespaceSchemaLocation="http://sumo.dlr.de/xsd/duarouterConfiguration.xsd">

    <input>
        <net-file value="simulation_files/map.net.xml"/>
        <route-files value="experiments/experiment_3_3/courier.trips.xml"/>
    </input>

    <output>
        <output-file value="experiments/experiment_3_3/courier.rou.xml"/>
    </output>

    <report>
        <verbose value="true"/>
    </report>

</duarouterConfiguration>
-->

<routes xmlns:xsi="http://www.w3.org/2001/XMLSchema-instance" xsi:noNamespaceSchemaLocation="http://sumo.dlr.de/xsd/routes_file.xsd">
    <vType id="myCourier" maxSpeed="160.00" vClass="delivery"/>
    <vehicle id="courier_0" type="myCourier" depart="0.00">
        <route edges="-908811053 -908811054#0 -24649912#3 -24649912#2 -24649912#1 -24649912#0 -4472935#15 -4472935#14 -4472935#13 -4472935#12 -4472935#11 -4472935#10 -4472935#9 -4472935#8 -4472935#7 -4472935#6 -4472935#4 -4472935#2 -4472935#1 1117665628#0 1117665628#1 1117665627 296643017 75601197 23607228 168913375 1331885789#0 37715631#0 1281160609 1283310926#1 -8072830 1117665613#1 1331885787 168913376 298894521 1117665612 1117665611 4760137#0 161157238#0 -25751069#14 -25751069#13 -25751069#11 -25751069#10 -25751069#9 -25751069#8 -25751069#7 -25751069#5 -25751069#4 -25751069#3 -25751069#2 -25751069#1 522866676#2 522866676#3 794760159#0 794760159#1 5608242#0 791793605#0 791793605#2 159090919#12 -794753775#10 -794753775#9 -794753775#7 -794753775#5 -794753775#4 -794753775#3 -794753775#2 -794753775#0 -5150696#2 -5150696#1 -5150696#0 -769769899#3 -769769899#1 -769769899#0 -86484370#11 -86484370#9 -86484370#8 -86484370#7 -86484370#6 -86484370#5 -86484370#4 -86484370#2 -86484370#1 -86484370#0 -4762051#3 -4762051#2 -4762051#1 -4762051#0 23692331#0 23692331#1 23692331#2 23692331#3 755686004#0 755686004#1 755686004#2 755686004#4 755686004#5 827099637#1 755686002#0 755686002#2 755686002#3 -24009035#7 -24009035#6 -24009035#4 24009035#0 24009035#6 24009035#7 -755686002#4 -755686002#2 -755686002#0 -827099637#1 -755686004#5 -755686004#4 -755686004#3 -755686004#1 -755686004#0 -23692331#3 -23692331#2 -23692331#1 -23692331#0 4762051#0 4762051#1 4762051#2 4762051#3 86484363#0 86484363#2 86484363#3 86484363#4 86484363#5 280227989#0 280227989#1 86484364#0 86484364#2 86484364#3 86484364#4 86484364#5 86484364#6 86484364#7 -43967206#6 -43967206#5 -43967206#4 -43967206#3 -43967206#2 43967207#0 43967207#5 23580577 305994915 29240754#1 -799488152 -799488153 -799488154 -188503276 -799488155 -799488156 -106168572 -799488157 -799488158#1 -799488158#0 -72265692 -448536967 -448493739#2 -1318324856#3 778415612#0 -778415612#1 1318324856#1 63950614#0 63950614#3 63950614#4 63950614#5 63950614#6 63950614#7 44277751#0 44277751#2 44277751#4 44277751#5 4389897#0 4389897#2 4389897#3 797825621#0 797825621#2 797825621#7 797825621#8 797825621#9 625749091 797825620#0 797825620#1 797825620#3 69683715#0 286334156#0 286334156#2 -213904104#1 218020965#0 -528717307#8 4798776#0 411717389 -411717389 -4798776#0 -528717307#6 -528717307#5 -528717307#4 -528717307#2 1126042571#0 1126042571#1 1126042571#2 1126042570#0 1126042570#2 -1126042569 -1126182936#3 -1126182936#2 -797250441#4 -797250441#1 -797250441#0 -1126188034#1 -247364230#3 -247364230#2 -247364230#1 -247364230#0 147497982#0 147497982#1 238394699#0 171029341 171029340 147498082#0 147498082#1 147498082#2 1074537496 274492668#0 274492668#1 147498100 188354437 188354433 43945931#0 43945931#2 129146497 23262315 23262316 268074841 792446264 37770949 23692402 168542235 168542234 36827855 36827856#0 28723370 1207734641 1207734642#0 28723369#0 323465913#0 -799488163 -323465914 37685623 36834403#0 36834403#2 997725375 722951100#0 -1017656016#2 -995533298#1 -995533298#0 -1330893727 -995533299 -1338562344 -160904350 -4365725#1 8116671#0 8116671#2 8116671#3 8116671#5 521576118 4995025#0 4995025#2 4995025#3 4995025#5 4995025#8 4995025#9 4995025#10 1376665366#0 1376665366#1 1376665366#2 4411819#0 497384992#0 497384992#1 64417225 318729527 497384990 64417230#0 64417230#2 64417230#3 -4470652#13 -4470652#11 -4470652#9 -4470652#8 -4470652#7 -4470652#6 -4470652#5 -4470652#1 -4470652#0 -4470648#6 -4470648#3 -4470648#2 -4470648#1 -4444323#11 -151543207#5 1287275698#0 1287275698#2 -1287275698#2 -1287275698#0 151543207#4 -4444323#10 -4444323#9 -4444323#8 -4444323#7 -4444323#6 -4444323#5 -4444323#4 -4444323#3 -4444323#2 -4444323#1 278193378 1355321935 1355321934#0 -1381485798#4 -1381485798#2 -1381485798#1 -1202368185 -318729548 -148107872 -1160285448 283005735#0 278193379 4370514 124824611#0 124824611#3 124824611#4 1007837613#0 1007837613#4 4472859#0 4472859#1 4472859#3 4472859#5 4472859#6 4472859#7 4472859#8 4472859#9 1007837616#0 1007837616#1 1007837616#3 298672963#1 298672963#2 729398061#0 1340150766 -1300894377#1 -1300894377#0 956544045#0 1159401180#0 978974357#1 978974357#2 978974357#4 978974357#5 991767986#0 956544035#1 956544035#2 1161152338#0 1161152338#1 978974356#0 298672959#0 298672959#2 298672959#4 298672959#5 298672959#7 -298672959#7 -298672959#5 -298672959#4 -298672959#2 -298672959#1 956544039#0 1161152338#3 956544036#0 -978974357#5 -978974357#4 -978974357#3 -978974357#1 -978974357#0 1159401182 1193727874 1161152336 187671511 1347663030 1329060361 126035845#1 1329060362 116769908 4386628#0 4386628#1 4448351#0 4448351#2 4448351#3 978974334#0 978974334#1 150662889 -210673536 -4448352#14 -4448352#12 -4448352#11 1220453965#0 1220453965#1 1220453965#2 -1220453965#2 -1220453965#1 815636821#0 4448352#13 4448352#15 -150662889 -978974334#1 -978974334#0 -4448351#4 -4448351#2 -4448351#1 116769952#0 116769952#1 802293206#0 802293206#1 802293206#2 1330970873#0 1330970873#1 1329060365 5072936#0 5072936#1 5072936#2 5072936#3 5072936#4 976000810 315744730 37929957 29248496 4858318 240212900 4865541 124824608 124824609 11019440 210673535#0 210673535#2 210673535#4 210673535#5 210673535#6 497656035#2 497656035#3 1329065144 976000809#0 129958038#1 129958038#3 129958039#0 129958039#2 804338811#3 804338811#4 804338811#5 804338811#6 804338811#7 804338811#8 804338811#9 804338811#10 804338811#11 804338812#1 1329065145 804338814#3 804338813#0 29205703#2 954044816 1329065146 38420862#0 38420862#1 38420862#2 38420862#3 38420862#4 38420862#5 38420862#6 1329065147 608502811#0 608502811#1 608502811#3 608502811#4 608502811#6 608502811#7 608502811#8 608502811#9 608502811#11 608502811#13 608502811#14 608502811#16 608502811#17 608502811#18 608502811#20 608502811#21 608502811#22 608502811#23 608502811#24 608502811#25 608502811#27 608502811#28 608502811#29 608502811#30 608502811#31 608502811#32 608502811#33 608502811#34 608502811#36 608502538#0 154976798#0 154976798#1 154976798#2 -154976791#5 -154976791#4 -154976791#3 -154976791#2 -154976791#1 832592530 -832592530 -154976790#2 -154976790#0 857852603#2 197628851#2 1329070240#0 197628736 240208380#0 435645610#0 435645610#2 240208378#0 240208378#1 843528254#0 843528254#1 1329070241#0 199001165#0 199001165#2 197628951#0 197628951#1 843528252 843528253#0 843528253#2 843528253#3 843528253#4 843528253#9 843528253#10 843528253#12 843528253#14 843528253#16 843528251#0 121189375#0 121189375#2 951733785 538606969#0 35974210#2 -1329070242 4514378 988958872 1329070243 44731128#0 44731128#1 44731128#3 1117401971 1117401972#0 1117401972#1 240302776 1117401969 240302777 172110606 135370433 802045440 26518362 135370431#0 259582942 -226887650 -49895467#1 -674252254#1 -674252254#0 -674252312 -791260337 -383543799 -383543797 -47144893 -674424554#1 -378058536 -383543795 383543796 383543794 477669388#0 478815022 478462059 383543798#0 -131109390#1 -125599151 -36835805 -36835806 -69256826 -477669389 -511793672#1 -511793668 -151520594 -151520592 -511792979#1 -799468618#1 -799468616 -799468615 -799468614 -138467944 -69256823#1 -1013412277#1 -151520593 -799468612 -142028450 127381825#0 -517085672#1 517085672#0 -127381825#1 -799468611#1 -799468610 -517085673 -799468609 -799468608 -37711341#1 37711341#0 799468608 799468609 517085673 799468610 799468611#0 142028450 799468612 151520593 1013412277#0 -311457839#12 483701935#0 -483701935#1 311457839#10 -4930346#7 -4930346#5 142028455#0 142028455#2 1292518262#0 -1292518266#0 -142028455#1 4930346#5 4930346#6 -311457839#12 -311457839#9 -311457839#8 -311457839#7 -311457839#6 -311457839#5 -311457839#4 -311457839#3 -311457839#2 -311457840#1 -648718913 126096514#0 82114668#0 -1209034675#5 -1209034675#2 -1209034675#0 73086556#4 73086556#6 -73086551#2 311457841#2 311457841#3 311457840#0 4744681#0 38330911#0 38330911#1 38330909#0 -4744680#13 -4744680#10 -4744680#8 -4744680#7 -4744680#6 -4744680#4 -4744680#1 -653726587#13 -653726587#11 -653726587#10 -653726587#9 -653726587#8 -653726587#7 -653726587#5 -653726587#4 -653726587#3 -653726587#2 -653726587#1 -653726587#0 -37850958#2 -85640909#5 -85640909#2 -85640909#1 -157483192#3 -157483192#2 -157483192#1 -157483192#0 152210636#0 1282546674 240183962#1 37850959#0 37850959#2 37850959#3 37850959#4 37850959#5 1346891982 1233487809#0 1233487809#3 37850961#0 37850961#3 37850961#4 37850961#6 37850961#7 37850961#10 37850961#11 37850961#12 37850961#13 37850961#14 37850961#15 37850961#16 37850961#17 37850961#19 37850961#21 37850961#22 37850961#23 37850961#24 37850961#25 -165718095#7 -165718095#4 -165718095#0 -1234278744#7 -1234278744#6 -1177576154#2 1177576154#0 1234278744#6 1234278744#7 165718095#0 165718095#1 165718095#5 37850961#26 172111590#0 172111591#0 4370181#0 4370181#1 62075868#0 62075868#1 483008290#0 37647854#0 37647854#1 37647854#2 37647854#3 37647854#4 481771131 240331258#0 240331258#1 43948369#0 43948369#2 43948369#3 1177345718 1177345717#0 1177345717#2 1177345717#4 1177345717#5 1177345717#7 1177345717#8 5094796 1090990445#0 1090990445#1 1090990445#2 1143668250#0 1143668250#2 1143668250#3 1143668250#5 -5094794#4 1252328379#0 -1252328379#1 5094794#3 1143668250#6 1112008781#0 1112008781#1 1112008781#2 1112008781#3 175711905#0 175711905#1 40221769#0 91759923 1062171674#3 481771133#0 43948369#0 43948369#2 43948369#3 1177345718 1177345717#0 1177345717#2 1177345717#4 1177345717#5 1177345717#7 1177345717#8 1090990444#0 1090990443#0 23020236#0 23020236#2 23020236#3 23020236#4 -23910101#5 -23910101#3 27460320#0 27460320#1 4374986#2 4374986#3 4374986#4 4374986#5 4374986#6 4374986#7 4374986#9 4374986#10 4374986#11 1175407669#0 129146494#0 129146494#2 129146494#3 129146494#4 129146494#5 129146494#6 129146494#8 973953355#0 -174136418 -1271682160 -174137560 -26773403#1 -300874147 300874147 26773403#0 174137560 1271682160 1175579848#0 22888743#0 22888743#1 22888743#2 174136432#0 174136432#2 174136432#3 174136432#4 174136433#0 174136433#1 174136433#2 174136433#3 396681960 -396681960 -174136433#3 -174136433#2 -174136433#1 -174136433#0 -174136432#6 -174136432#3 -174136432#2 -174136432#1 -22888743#2 -22888743#1 -22888743#0 -1175579848#1 174136418 40221762#0 40221762#2 476905247#0 476905247#1 300874149#0 172131005#0 172131005#2 172131005#3 172131005#4 172131005#5 172131005#7 1175584518#0 129146513#0 91334136#0 218722719#0 218722719#2 218722719#3 1340800647#0 28169020#3 28169020#5 28169020#7 128478857#0 128478857#3 45627016#0 45627016#2 45627016#4 45627016#9 45627016#10 1233273097 1113713485#0 1233491011 -1178256355 -1233491428 -1233491427 -22901076#3 1115336868#0 1115336868#1 1115336868#2 1115336868#3 1115336868#4 1087346027 481040699#0 -220970637#12 -220970637#11 -220970637#10 -220970637#8 -220970637#7 -220970637#6 -220970637#5 -220970637#4 -220970637#3 -143058648#11 -143058648#9 -143058648#8 -143058648#7 -143058648#6 965898060#0 910312085#1 910312083 910312082#2 -1183492655 -1306859977 -1384351301#1 -1384351301#0 -827594876#0 -1253372216 -12994956#2 43945945#0 43945945#3 43945945#4 1244028765#0 4995177#0 4995177#1 1249447190#0 1249447189#1 1249447189#2 42423494#1 42423494#3 42423494#4 42423494#6 42423494#8 11016780#0 11016780#2 11016780#3 11016780#4 11016780#5 1087354036#0 -335032850#4 -335032850#3 -335032850#2 -335032850#1 -1372011670#2 -1372011670#0 -122740412#1 889208756#0 889208757 4886305 1282596338#0 1282596338#1 1282596338#2 1282596338#3 879220532#0 4995178#0 4995178#1 1343768981#0 -154944316#7 910324730 -910324730 154944316#4 1343768981#2 1343768981#4 1343768981#5 1347540737#0 -797941408#4 -797941408#1 -797941408#0 739431064#0 739431064#2 739431064#3 739431064#4 739431064#5 739431064#7 739431064#9 739431064#11 -154762348#1 103917871#1 739431064#13 1376954621#0 1376954621#2 4367296#0 4367296#2 4367296#3 4367296#4 4367296#5 4367296#6 164330190#0 164330190#3 164330190#4 278210734#5 278210734#7 278210734#9 278210734#10 278210734#12 -1230785410#2 -1230785411 -36834407#1 36834404#0 36834404#2 36839571#0 36839572#0 36839572#2 495435097#0 495435097#2 266437160#0 266437160#3 -266437160#4 -266437160#2 368181042#0 368181042#3 368181042#4 217536831#6 130848160#2 -43967209#2 -329587357#2 -36834402#1 -37685623 323465914 799488164 -323465913#1 -23718907 -1207734642#2 -1207734641 -28723370 -36827856#1 -36827855 29240434 866015968 168542236 23692401 37770954 23262317 799020924 985580659 634011450#0 -634011451#5 -634011451#2 -634011451#1 -1126182938 -1126182939 -529186398#2 -529186398#1 -529186398#0 -996079966#2 -996079966#1 -44151782#4 -44151782#2 -44151782#1 -44151782#0 996080478#0 415056978#0 -291929513 30153759#2 276499867#1 44151782#3 996079966#0 996079966#2 529186398#0 529186398#1 529186398#2 1126182939 1126182938 634011451#1 634011451#2 634011451#4 529186399#0 719919221#0 -719919221#4 -529186399#1 26706320#0 29020812 472372809 472372808 472372807 472382644 192685115 799488162 799488161 799488160 799488159#0 448493739#0 448536967 72265692 799488158#0 799488158#1 799488157 106168572 799488156 1117763652 188503276 799488154 799488153 799488152 305994914#0 810029142 202398570 202398573#0 202398573#2 202398573#3 307756986 -34582346#7 -34582346#3 -34582346#2 -34582346#1 4762142#2 -25867133#1 -25867238#14 173198396#3 173198396#5 173198396#7 173198396#9 173198396#10 25867133#0 -25867238#14 -25867238#13 -25867238#12 -25867238#11 -25867238#9 -25867238#7 -25867238#6 -25867238#5 -25867238#4 -25867238#3 -25867238#2 -25867238#1 4709678#0 4709678#2 4709678#4 725851952#0 725851952#2 725851952#4 725851952#5 725851951#0 725851951#1 725851951#2 725851951#3 -188498951#16 -188498951#14 -105211003#1 1287040607 -1287040607 -1287040611#0 -188498951#12 -188498951#10 -188498951#9 -188498951#8 -188498951#7 -188498951#6 -188498951#4 -188498951#2 -188498951#1 490099069#0 1337236828#0 -1375878320#2 -1375878320#0 -1375878321#1 -726166887#10 -726166887#8 -726166887#7 -726166887#6 -726166887#5 -726166887#4 -726166887#3 -726166887#2 -726166887#1 -726166887#0 -313029614#3 -313029614#2 -313029614#1 -313029614#0 -313029615 -23908711#2 -23908711#1 810605035#0 810605035#1 810605035#2 810605035#4 810605035#5 810605035#6 810605035#7 810605035#8 133721316#0 133721316#2 133721316#3 133721316#4 133721316#6 133721316#9 133721316#10 133721316#12 133721316#13 133721316#14 -974288555#1 -974288555#0 24649912#0 24649912#1 24649912#2 24649912#3 908811054#0 908811053 -908811053"/>
        <stop lane="791793605#2_0" endPos="103.08" duration="60.00" parking="1"/>
        <stop lane="-24009035#4_0" endPos="64.49" duration="60.00" parking="1"/>
        <stop lane="4798776#0_0" endPos="65.72" duration="60.00" parking="1"/>
        <stop lane="-1287275698#2_0" endPos="6.19" duration="60.00" parking="1"/>
        <stop lane="124824611#4_0" endPos="13.31" duration="60.00" parking="1"/>
        <stop lane="-298672959#7_0" endPos="0.10" duration="60.00" parking="1"/>
        <stop lane="1220453965#2_0" endPos="5.68" duration="60.00" parking="1"/>
        <stop lane="832592530_0" endPos="21.83" duration="60.00" parking="1"/>
        <stop lane="-127381825#1_0" endPos="18.73" duration="60.00" parking="1"/>
        <stop lane="1292518262#0_0" endPos="6.67" duration="60.00" parking="1"/>
        <stop lane="73086556#4_0" endPos="20.46" duration="60.00" parking="1"/>
        <stop lane="-1177576154#2_0" endPos="20.46" duration="60.00" parking="1"/>
        <stop lane="-1252328379#1_0" endPos="43.31" duration="60.00" parking="1"/>
        <stop lane="27460320#1_0" endPos="112.29" duration="60.00" parking="1"/>
        <stop lane="396681960_0" endPos="5.92" duration="60.00" parking="1"/>
        <stop lane="218722719#2_0" endPos="12.81" duration="60.00" parking="1"/>
        <stop lane="910312085#1_0" endPos="2.89" duration="60.00" parking="1"/>
        <stop lane="11016780#2_0" endPos="26.44" duration="60.00" parking="1"/>
        <stop lane="-910324730_0" endPos="35.77" duration="60.00" parking="1"/>
        <stop lane="103917871#1_0" endPos="35.95" duration="60.00" parking="1"/>
        <stop lane="-266437160#2_0" endPos="0.73" duration="60.00" parking="1"/>
        <stop lane="415056978#0_0" endPos="12.09" duration="60.00" parking="1"/>
        <stop lane="173198396#7_0" endPos="10.62" duration="60.00" parking="1"/>
        <stop lane="-1287040607_0" endPos="14.13" duration="60.00" parking="1"/>
    </vehicle>
    <vehicle id="courier_1" type="myCourier" depart="0.00">
        <route edges="-908811053 -908811054#0 -24649912#3 -24649912#2 -24649912#1 -24649912#0 -4472935#15 -4472935#14 -4472935#13 -4472935#12 -4472935#11 -4472935#10 -4472935#9 -4472935#8 -4472935#7 -4472935#6 -4472935#4 -4472935#2 -4472935#1 1117665628#0 1117665628#1 1117665627 296643017 75601197 23607228 168913375 1331885789#0 37715631#0 1281160609 1283310926#1 -8072830 1117665613#1 1331885787 168913376 298894521 1117665612 1117665611 4760137#0 161157238#0 -25751069#14 -25751069#13 -25751069#11 -25751069#10 -25751069#9 -25751069#8 -25751069#7 -25751069#5 -25751069#4 -25751069#3 -25751069#2 25751363#0 25751364#0 -522866676#2 25751069#0 -25751069#1 522866676#2 522866676#3 794760159#0 794760159#1 522866677#0 522866677#1 522866677#3 522866677#4 522866677#5 522866677#6 522866677#7 522866677#8 522866677#10 522866677#12 43967203#0 43967203#2 43967203#3 43967203#4 43967203#5 43967203#6 86484364#0 86484364#2 86484364#3 86484364#4 86484364#5 86484364#6 86484364#7 -43967206#6 -43967206#5 -43967206#4 -43967206#3 -43967206#2 43967207#0 43967207#5 23580577 305994915 29240754#1 -799488152 -799488153 -799488154 -188503276 -799488155 -799488156 -106168572 -799488157 -799488158#1 -799488158#0 -72265692 -448536967 -448493739#2 -799488159#2 -799488160 -799488161 -799488162 -192685115 -472382644 -472372807 -472372808 -472372809 4684709 37770346#0 37770346#1 37770346#2 529186399#0 1126182942#0 1126182942#1 1126182942#2 1126182942#3 1126182942#4 1126182942#5 1126182942#6 1126182942#8 1311276545#0 1311276545#1 1311276546#0 1126182937#0 1126182937#1 1126182937#2 1126182937#3 1126182937#4 849750317 1126182941 1126188031 1126188032 797250441#1 797250441#2 1126182936#0 1126182936#3 1126042569 -1126042570#2 -1126042570#1 528717306#0 362862812#0 -362862812#3 -528717306#1 1126042570#0 1126042570#2 -1126042569 -1126182936#3 -1126182936#2 -797250441#4 -797250441#1 -797250441#0 -1126188034#1 -247364230#3 -247364230#2 -247364230#1 -247364230#0 147497982#0 147497982#1 238394699#0 171029341 171029340 147498082#0 147498082#1 147498082#2 1074537496 274492668#0 274492668#1 147498100 188354437 188354433 43945931#0 43945931#2 129146497 23262315 23262316 268074841 792446264 37770949 23692402 168542235 130848159 437451817#0 23909876#0 8086267 39348071 -87775720#1 -4375278 -114254067 -995193691 -366172721 -497380890 -380551990#1 -380551989#0 1025180489#0 1353666306#0 1353666306#1 1353666306#2 996074939#0 996074939#2 996074939#3 533099321#0 533099321#1 533099321#3 533099325#0 533099325#2 -163695776#5 -163695776#3 -163695776#2 -163695776#1 4886703#7 4886703#9 -497385000#1 -205369291#5 -205369291#4 -205369291#2 -205369291#1 -205369291#0 -4365718#13 -4365718#12 -4365718#9 -4365718#7 -4365718#6 -4365718#5 -4365718#4 -4365718#3 -4365718#2 -4365718#1 -1376665366#3 -1376665366#1 -1376665366#0 165396011#0 165396011#2 165396011#3 -165396011#3 -165396011#2 -165396011#1 1376665366#0 1376665366#1 1376665366#2 4411819#0 497384992#0 497384992#1 64417225 318729527 497384990 947921805#3 39926224#1 39926224#2 39926224#3 39926224#4 39926224#5 39926224#7 39926224#8 39926224#9 39926224#10 39926224#11 39926224#12 39926224#13 947921800#0 947921800#1 947921802#0 947921802#2 947921802#3 947921802#4 947921802#5 947921802#6 157059059#0 223782634 4370615#0 4370615#2 4370615#4 4370615#5 4370615#6 4370615#7 755823755#0 151154550#0 151154550#2 103323528#0 213566679 65175300 528320824 528320826 528320822 528320819 274779817 1128453347 1128453346 151413832#0 151413832#2 4370618 151413821 151413826#0 151413826#1 96760926 282866119 138025242#0 138025242#1 138025242#2 512382823 949514593 -96760911#2 -144147757 -42733938 4392903#0 136553989#0 136553989#1 136553989#2 136553989#3 136553989#4 -1189442736#1 -1189442733 -1327814815#1 -1327814815#0 -142161056#6 -142161056#5 -142161056#3 -142161056#1 -142161056#0 -1327814816 1186025854 1186025857#1 1186025852#0 1186025852#1 -1186025866#1 -37523870#0 -345937861#7 -345937861#5 -345937861#3 -345937861#1 24257815#12 24257815#13 24257815#14 24257815#15 24257815#16 282866125#7 282866125#8 282866125#9 282866125#10 282866125#11 282866125#12 282866125#13 282866126#1 282866126#3 282866126#6 282866126#7 282866126#8 129591475#16 129591475#17 129591475#18 129591475#19 129591475#20 129591475#21 129591475#22 129591475#23 129591475#24 129591476#1 129591476#2 129591476#3 129591476#5 129591476#7 129591476#8 129591476#9 129591476#10 1076155371 1289114293 4377399#1 4377399#2 4377399#3 4377399#4 1285522955#1 -4388695#9 -4388695#7 -4388695#6 -4388695#5 -4388695#4 -4388695#3 -512383618#4 -512383618#3 -512383618#2 -512383618#1 -512383618#0 -160397134#5 -139040209#5 -139040209#3 -139040209#2 -139040209#1 -161765454 -20007872 95067027#0 95067027#2 95067027#4 479748274#0 479748274#2 184349364#8 184349364#9 -300334267#6 1159132993 377438957#0 377438957#1 -377438958#1 -4849850#3 92202426#0 377438955#0 -377438955#1 -92202426#1 -4849850#2 -4849850#0 -300334169#0 24257990#10 24257990#11 223783017#0 223783017#1 223783018#0 223783018#2 243317949#0 259582942 -226887650 -49895467#1 -674252254#1 674252317#0 -674252317#3 674252254#1 762101177#0 825955792#0 825955792#1 4727666#0 4727666#1 4727666#2 4727666#3 -7994502#12 7994502#11 -7994502#12 -19886578#5 -19886578#3 -19886578#2 -19886578#1 -4470501#4 -4470501#3 -4470501#2 -4470501#1 240058455#0 240058455#1 240058455#2 240058455#3 -51095590#39 -51095590#38 -51095590#37 -51095590#36 -51095590#34 -51095590#33 -51095590#31 -51095590#29 -51095590#27 -51095590#26 -51095590#24 -51095590#23 -51095590#22 -51095590#21 -51095590#19 -51095590#18 -51095590#17 -51095590#14 -51095590#12 -51095590#10 -51095590#9 -51095590#8 -51095590#6 -51095590#5 -51095590#4 -51095590#3 -51095590#2 43992449#0 1267964361 26702971#0 121189377#0 121189377#1 26702970 -51096212#1 24064061#0 24064061#1 24064061#3 24064061#4 24064061#5 462372657#0 462372648 -462372648 -462372657#1 24064061#7 24064061#9 24064061#11 365477365#0 24064067#0 113600066#4 -24064061#10 -24064061#8 -24064061#6 -24064061#4 -24064061#3 -24064061#2 -24064061#0 51096212#0 51096210#0 51096210#1 144056296#0 144056296#3 144056296#4 144056296#5 38192984#0 38192984#1 38192984#3 38192984#4 38192984#5 117726680 603718194#0 521576129 521576128 755628503 1077409068 1077409067 1077409066 61919127 61919126#0 183705365 200499719#0 200499719#1 -603722362#1 -166804899#5 -166804900 -166807467#5 -166807467#4 -166807467#1 -755628498#28 -755628498#26 -755628498#25 -755628498#23 -755628498#21 -755628498#20 -755628498#18 -755628498#17 -755628498#16 -755628498#14 -755628498#11 -755628498#10 -755628498#9 -755628498#8 -755628498#7 -755628498#6 -755628498#5 -755628498#3 -755628498#2 -755628498#1 -755628498#0 37883948#0 37000700#0 -223726584#1 -223726584#0 -1063207941#2 1063232980 129136039#5 223726592#0 -1063232987#1 -1063232988#2 -218983460#13 1286838927#0 1297736029 -1297736029 -1286838927#0 218983460#11 1063232988#0 1063232987#0 365470848#0 129136039#7 129136039#0 129136039#1 129136039#2 129136039#3 129136052#0 1063232989#0 223726584#0 223726584#1 -37000700#1 -37883948#1 -553096444 -4928747#11 -4928747#1 -4928747#0 956154484#0 693765715#5 995187951#0 373229394 373229515 373229393 373229396 373231015 132993737 41214803#1 41214803#2 157716502#2 809601529#0 157716505#0 157716505#1 157716503#0 157716503#1 157716503#3 157716503#4 157716503#5 157716503#6 157716503#7 157716503#8 157716503#10 157716503#13 924408371 29020403 330333300 1079723245 1077409063 1077409064 266413515 266413518 266413516#0 266413516#1 22878128 759350393#0 29103606 -169458366 -392273793 -641957964 -36890914 -649745180 -641956029 -36890917 -641956030 -681607914 -681607912 -435129060 -681607911 -691602090 -876293643 -876288983 -876288982 -876288981 -876288980 -876288979 -650198087 -650198085 17505017#0 17505017#2 -711623187#15 -711623187#13 -711623187#12 -711623187#11 1102727576#0 -1120298404#6 -1120298404#5 -1120298404#3 -1120298404#2 -1120298404#1 -1120298404#0 641890635#3 641890635#4 -648762708 -648762704#1 -876288974 -152768333#1 -152768333#0 -190279324#1 -876288973 -123154510#1 -691377749#1 -691380824 -691377753#1 -876288972#1 -876288972#0 -160314143#1 -876288969 -129146510#1 -876288968 -1092274480 -876288967 -876288966 -43992443 -476293103 -876288971 -476293104#2 476293104#0 876288971 476293103 43992443 876288966 876288967 1092274480 876288968 -223938179#16 -223938179#12 -223938179#11 -223938179#10 -223938179#9 -223938179#8 44733634#0 1302031503 154256130#1 691377754 691377753#0 691380824 691377749#0 123154514#0 -685883066 -691377749#1 -691380824 -691377753#1 -876288972#1 -876288972#0 -160314143#1 -876288969 -129146510#1 -876288968 -1092274480 -876288967 -876288966 -43992443 -476293103 -876288971 -476293104#2 -299137719#2 -36890925 -476293107 -36890924 -119690467#2 -476293108#1 -172131004 -36888589 22464689 45278100 45278099 116981274 160947894 160947890 28743756 1009727597 241026318 240657405 1097668783#0 1213263824#0 -974288548#12 -974288548#11 -974288548#10 -974288548#8 -974288548#7 -974288548#5 -974288548#4 -974288548#3 -974288548#2 -974288548#1 -38331254#3 974288547#0 -1203436405#5 -280940210#6 -280940210#4 -280940210#3 -280940210#2 -280940210#1 27178391#0 280940217#1 280940217#2 361314453#0 361314453#1 123537356 365162145#0-AddedOnRampEdge 365162145#0 365162145#1 365162145#2 27178078 219653054#2 219653054#3 36893383 -123535953#21 -123535953#18 -123535953#16 -123535953#15 -123535953#14 -123535953#13 -123535953#12 -123535953#11 1205242324#1 -1205242324#1 123535953#11 123535953#12 123535953#13 123535953#14 123535953#15 123535953#16 123535953#18 123535953#19 123535941 166130506 280940212#0 280940211 397259420#0 280940210#1 280940210#2 280940210#3 280940210#4 280940210#5 -1305097092#1 -1305097092#0 1305097093#0 -238868636#33 -238868636#32 -238868636#31 -238868636#30 -238868636#29 -238868636#27 -238868636#26 -238868636#25 -238868636#24 -238868636#23 -238868636#21 -238868636#20 -238868636#18 -238868636#16 -238868636#14 -238868636#13 -238868636#12 -238868636#10 -238868636#8 -238868636#7 -238868636#6 -238868636#5 -238868636#4 -238868636#3 -238868636#2 -238868636#1 -238868636#0 23263288#0 23263288#2 23263288#4 23263288#5 23263288#7 23263288#8 23263288#9 23263288#10 23263288#12 23263288#13 156167921#0 156167921#1 156167921#4 156167921#5 156167921#7 212045792#0 -212045792#1 156167921#9 156167921#10 163534649#0 163534649#3 163534649#5 163534649#8 163534649#9 163534649#10 163534649#11 163534649#12 947921777#0 947921776 334834352 -1070769223#2 -1070769223#1 -1070769223#0 -126549145#4 -126549145#2 -126549145#1 -126549145#0 -932979856#3 -932979856#2 -932979856#0 1052331938#0 932979866#0 -132397213 38749145 1303678631#1 -909972361#3 -909972361#0 909972361#0 909972361#1 -1303678631#1 -1303678631#0 -932979863 4705959#0 -28296399#8 -28296399#6 -28296399#4 -28296399#3 -28296399#2 -28296399#1 -160947893#3 -160947893#1 -160947893#0 160947897 712138712#1 160947887 172113408 160947889 37262922 27133331 406784581 27133503 122479041#0 122479041#1 27133505 27133603 38345603 19885704 50915791 348346524 348346522 348346519 47145433 132397536#0 37713616#0 1117665592 1117665591 1117665590 23016374 52347620#1 197637379#0 -819355479 121334221#0 325384114#0 325384114#1 325384114#2 -325384114#2 -325384114#1 -325384114#0 -121334221#1 -86484366 86484366 819355479 790296473 75601194#0 1117665589 31509769 -277166725#3 -277166725#1 -23908703#7 -23908703#6 -23908703#5 -23908703#3 -23908703#2 -23908703#0 4473058#0 4473058#4 4473058#5 4473058#8 4473058#11 4473058#12 4473058#14 4473058#16 4473058#17 4473058#18 4473058#19 4473058#20 4473058#21 4473058#22 4473058#23 4473058#24 4473058#25 4473058#26 4473058#27 4473058#28 4473058#29 4473058#30 4473058#32 4473058#33 4473058#35 4473058#36 4473058#37 4473058#38 4473058#39 4473058#40 4473058#43 4473058#44 4473058#45 4473058#48 4473058#51 4473058#52 4473058#54 4473058#55 4473058#56 4473058#57 4473058#58 4473058#60 4473058#63 4473058#65 789003167#0 789003167#1 789003167#3 789003167#4 789003167#5 789003167#6 789003167#7 789003167#8 789003167#9 789003167#10 789003167#11 789003167#12 789003167#13 810605035#0 810605035#1 810605035#2 810605035#4 810605035#5 810605035#6 810605035#7 810605035#8 133721316#0 133721316#2 133721316#3 133721316#4 133721316#6 133721316#9 133721316#10 133721316#12 133721316#13 133721316#14 -974288555#1 -974288555#0 24649912#0 24649912#1 24649912#2 24649912#3 908811054#0 908811053 -908811053"/>
        <stop lane="-522866676#2_0" endPos="14.63" duration="60.00" parking="1"/>
        <stop lane="-362862812#3_0" endPos="20.15" duration="60.00" parking="1"/>
        <stop lane="-163695776#2_0" endPos="61.20" duration="60.00" parking="1"/>
        <stop lane="165396011#3_0" endPos="67.48" duration="60.00" parking="1"/>
        <stop lane="24257815#14_0" endPos="0.10" duration="60.00" parking="1"/>
        <stop lane="377438955#0_0" endPos="57.44" duration="60.00" parking="1"/>