<?xml version='1.0' encoding='UTF-8'?>
<routes xmlns:xsi="http://www.w3.org/2001/XMLSchema-instance" xsi:noNamespaceSchemaLocation="http://sumo.dlr.de/xsd/routes_file.xsd"><vType id="myCourier" maxSpeed="160" vClass="delivery" /><trip id="courier_0" type="myCourier" depart="0" from="-908811053" to="-908811053"><stop lane="51822108#0_0" endPos="45.40311536050555" parking="true" duration="60" friendlyPos="true" /><stop lane="-1208740003_0" endPos="39.20996704971399" parking="true" duration="60" friendlyPos="true" /><stop lane="217480760#2_0" endPos="64.82799912396193" parking="true" duration="60" friendlyPos="true" /><stop lane="-103966362#3_0" endPos="32.26989373789842" parking="true" duration="60" friendlyPos="true" /><stop lane="-217297724_0" endPos="269.7237640704934" parking="true" duration="60" friendlyPos="true" /><stop lane="103966363_0" endPos="210.16816526695328" parking="true" duration="60" friendlyPos="true" /><stop lane="124457046_0" endPos="137.39356275512458" parking="true" duration="60" friendlyPos="true" /><stop lane="-162109058#0_0" endPos="16.844559501924277" parking="true" duration="60" friendlyPos="true" /><stop lane="150855044#0_0" endPos="253.84674673010713" parking="true" duration="60" friendlyPos="true" /><stop lane="-1086651188#1_0" endPos="31.068714509637413" parking="true" duration="60" friendlyPos="true" /><stop lane="-150854977#0_0" endPos="24.336805460042136" parking="true" duration="60" friendlyPos="true" /><stop lane="-124338807#1_0" endPos="80.3179468455682" parking="true" duration="60" friendlyPos="true" /><stop lane="-493682354#1_0" endPos="30.35108960155854" parking="true" duration="60" friendlyPos="true" /><stop lane="1270868458_0" endPos="0.7155289910989336" parking="true" duration="60" friendlyPos="true" /><stop lane="1212743478_0" endPos="18.263149214307788" parking="true" duration="60" friendlyPos="true" /><stop lane="-25788999#1_0" endPos="46.67313203595965" parking="true" duration="60" friendlyPos="true" /><stop lane="35041451#1_0" endPos="94.83603272782344" parking="true" duration="60" friendlyPos="true" /><stop lane="89959384#0_0" endPos="36.1007870773498" parking="true" duration="60" friendlyPos="true" /><stop lane="190477476#0_0" endPos="47.97772388693244" parking="true" duration="60" friendlyPos="true" /><stop lane="-23908662#1_0" endPos="66.22448903220231" parking="true" duration="60" friendlyPos="true" /><stop lane="26999809#0_0" endPos="177.37542697504432" parking="true" duration="60" friendlyPos="true" /><stop lane="52347639#0_0" endPos="230.35761536611847" parking="true" duration="60" friendlyPos="true" /><stop lane="-157811767#5_0" endPos="50.45312527409598" parking="true" duration="60" friendlyPos="true" /><stop lane="-7979623#4_0" endPos="13.138445013713325" parking="true" duration="60" friendlyPos="true" /></trip><trip id="courier_1" type="myCourier" depart="0" from="-908811053" to="-908811053"><stop lane="1306014808_0" endPos="58.68440072421733" parking="true" duration="60" friendlyPos="true" /><stop lane="-1222731839_0" endPos="44.630434725695295" parking="true" duration="60" friendlyPos="true" /><stop lane="749007395#0_0" endPos="14.490460424088127" parking="true" duration="60" friendlyPos="true" /><stop lane="1040506816#0_0" endPos="71.5286473727297" parking="true" duration="60" friendlyPos="true" /><stop lane="1316736867_0" endPos="4.28695684968803" parking="true" duration="60" friendlyPos="true" /><stop lane="94415957#3_0" endPos="12.393064825023147" parking="true" duration="60" friendlyPos="true" /><stop lane="-137674526#1_0" endPos="138.62889848358031" parking="true" duration="60" friendlyPos="true" /><stop lane="-211146732_0" endPos="117.45847065305274" parking="true" duration="60" friendlyPos="true" /><stop lane="-191374937#1_0" endPos="37.77991716578638" parking="true" duration="60" friendlyPos="true" /><stop lane="-123809992#2_0" endPos="76.96917609653741" parking="true" duration="60" friendlyPos="true" /><stop lane="120926919#2_0" endPos="2.06680930535341" parking="true" duration="60" friendlyPos="true" /><stop lane="-137645660#15_0" endPos="64.51560855703323" parking="true" duration="60" friendlyPos="true" /><stop lane="116769821_0" endPos="199.52613972088014" parking="true" duration="60" friendlyPos="true" /><stop lane="1106119197_0" endPos="81.9666915199363" parking="true" duration="60" friendlyPos="true" /><stop lane="100974112_0" endPos="21.306718869619043" parking="true" duration="60" friendlyPos="true" /><stop lane="116786289#0_0" endPos="69.1231045024207" parking="true" duration="60" friendlyPos="true" /><stop lane="124713385#10_0" endPos="15.966543529597708" parking="true" duration="60" friendlyPos="true" /><stop lane="146416196#2_0" endPos="53.90659556698732" parking="true" duration="60" friendlyPos="true" /><stop lane="908125314_0" endPos="0.0" parking="true" duration="60" friendlyPos="true" /><stop lane="-25728003#8_0" endPos="25.561517422271358" parking="true" duration="60" friendlyPos="true" /><stop lane="25728003#9_0" endPos="38.40655409507255" parking="true" duration="60" friendlyPos="true" /><stop lane="-190544263#20_0" endPos="16.84789846803634" parking="true" duration="60" friendlyPos="true" /><stop lane="-115542233#7_0" endPos="97.33207508500975" parking="true" duration="60" friendlyPos="true" /></trip><trip id="courier_2" type="myCourier" depart="0" from="-908811053" to="-908811053"><stop lane="-35572767#0_0" endPos="27.400606186118786" parking="true" duration="60" friendlyPos="true" /><stop lane="-1253267111_0" endPos="52.06785265499143" parking="true" duration="60" friendlyPos="true" /><stop lane="-4389895#0_0" endPos="27.902655148678708" parking="true" duration="60" friendlyPos="true" /><stop lane="1093414183#0_0" endPos="45.57048660271979" parking="true" duration="60" friendlyPos="true" /><stop lane="1093414183#0_0" endPos="62.22108661561444" parking="true" duration="60" friendlyPos="true" /><stop lane="-1217303527_0" endPos="0.0" parking="true" duration="60" friendlyPos="true" /><stop lane="472372809_0" endPos="5.523502644275793" parking="true" duration="60" friendlyPos="true" /><stop lane="45855508_0" endPos="7.209107593173963" parking="true" duration="60" friendlyPos="true" /><stop lane="-4705957#2_0" endPos="119.14309425418632" parking="true" duration="60" friendlyPos="true" /><stop lane="334324638#0_0" endPos="21.285899127790074" parking="true" duration="60" friendlyPos="true" /><stop lane="-4708826#5_0" endPos="1.4480676779758008" parking="true" duration="60" friendlyPos="true" /><stop lane="37647849#6_0" endPos="25.927613453661206" parking="true" duration="60" friendlyPos="true" /><stop lane="-910336044#0_0" endPos="92.86271233893957" parking="true" duration="60" friendlyPos="true" /><stop lane="-280694256#2_0" endPos="0.0" parking="true" duration="60" friendlyPos="true" /><stop lane="82932268#2_0" endPos="17.155363592766143" parking="true" duration="60" friendlyPos="true" /><stop lane="-127169957#2_0" endPos="63.07235248549994" parking="true" duration="60" friendlyPos="true" /><stop lane="-84622642#9_0" endPos="74.56886024532605" parking="true" duration="60" friendlyPos="true" /><stop lane="-493901661_0" endPos="55.47653890282005" parking="true" duration="60" friendlyPos="true" /><stop lane="-803297407_0" endPos="1.0848878657568308" parking="true" duration="60" friendlyPos="true" /><stop lane="199001165#2_0" endPos="14.171102080479823" parking="true" duration="60" friendlyPos="true" /><stop lane="90631068_0" endPos="228.46730332465174" parking="true" duration="60" friendlyPos="true" /><stop lane="-68768306_0" endPos="129.82144466765436" parking="true" duration="60" friendlyPos="true" /><stop lane="116769964#0_0" endPos="6.683447934686193" parking="true" duration="60" friendlyPos="true" /><stop lane="1196888979#0_0" endPos="30.090340182872342" parking="true" duration="60" friendlyPos="true" /><stop lane="220650519_0" endPos="34.86848947982529" parking="true" duration="60" friendlyPos="true" /><stop lane="42458736#7_0" endPos="5.218441171346927" parking="true" duration="60" friendlyPos="true" /><stop lane="-5009977#7_0" endPos="47.95816616419975" parking="true" duration="60" friendlyPos="true" /></trip><trip id="courier_3" type="myCourier" depart="0" from="-908811053" to="-908811053"><stop lane="8083276#1_0" endPos="267.74927132734655" parking="true" duration="60" friendlyPos="true" /><stop lane="1342644413_0" endPos="0.0" parking="true" duration="60" friendlyPos="true" /><stop lane="685797314#7_0" endPos="32.47001202010167" parking="true" duration="60" friendlyPos="true" /><stop lane="1213263823#2_0" endPos="79.41484572033069" parking="true" duration="60" friendlyPos="true" /><stop lane="157856078#3_0" endPos="32.65514189498529" parking="true" duration="60" friendlyPos="true" /><stop lane="1346190443_0" endPos="56.929237327110044" parking="true" duration="60" friendlyPos="true" /><stop lane="126549156#2_0" endPos="1.5757980190552014" parking="true" duration="60" friendlyPos="true" /><stop lane="-4414841#10_0" endPos="2.767259943842642" parking="true" duration="60" friendlyPos="true" /><stop lane="-22888744#5_0" endPos="14.510755642389633" parking="true" duration="60" friendlyPos="true" /><stop lane="-396214211_0" endPos="6.599519679116853" parking="true" duration="60" friendlyPos="true" /><stop lane="152768433#2_0" endPos="4.613415220854331" parking="true" duration="60" friendlyPos="true" /><stop lane="296084967_0" endPos="137.26892695460467" parking="true" duration="60" friendlyPos="true" /><stop lane="98784648#0_0" endPos="159.162280388457" parking="true" duration="60" friendlyPos="true" /><stop lane="-169684264#1_0" endPos="80.15485163054994" parking="true" duration="60" friendlyPos="true" /><stop lane="-1252328379#1_0" endPos="47.840771471039986" parking="true" duration="60" friendlyPos="true" /><stop lane="894628930#0_0" endPos="15.134313662526182" parking="true" duration="60" friendlyPos="true" /><stop lane="-1031678902#0_0" endPos="40.38220932905393" parking="true" duration="60" friendlyPos="true" /><stop lane="204113755_0" endPos="0.0" parking="true" duration="60" friendlyPos="true" /><stop lane="746099337_0" endPos="0.8468727431463559" parking="true" duration="60" friendlyPos="true" /><stop lane="478845010#6_0" endPos="53.652881938084526" parking="true" duration="60" friendlyPos="true" /><stop lane="676536421_0" endPos="2.535705030163418" parking="true" duration="60" friendlyPos="true" /><stop lane="-1120102723#2_0" endPos="0.0" parking="true" duration="60" friendlyPos="true" /><stop lane="123282871#0_0" endPos="40.93166431153649" parking="true" duration="60" friendlyPos="true" /><stop lane="-4689239#5_0" endPos="9.423530277748005" parking="true" duration="60" friendlyPos="true" /><stop lane="1093251524#0_0" endPos="62.239695398428594" parking="true" duration="60" friendlyPos="true" /><stop lane="-248458354#2_0" endPos="21.283550230644853" parking="true" duration="60" friendlyPos="true" /></trip></routes>