<?xml version='1.0' encoding='UTF-8'?>
<routes xmlns:xsi="http://www.w3.org/2001/XMLSchema-instance" xsi:noNamespaceSchemaLocation="http://sumo.dlr.de/xsd/routes_file.xsd"><vType id="myCourier" maxSpeed="160" vClass="delivery" /><trip id="courier_0" type="myCourier" depart="0" from="-908811053" to="-908811053"><stop lane="-909972361#0_0" endPos="15.561589952957018" parking="true" duration="60" friendlyPos="true" /><stop lane="212045792#0_0" endPos="4.432853734758993" parking="true" duration="60" friendlyPos="true" /><stop lane="-238868636#6_0" endPos="10.508811422589714" parking="true" duration="60" friendlyPos="true" /><stop lane="396681960_0" endPos="5.924869109851066" parking="true" duration="60" friendlyPos="true" /><stop lane="1302031503_0" endPos="300.8823060478475" parking="true" duration="60" friendlyPos="true" /><stop lane="1102727576#0_0" endPos="125.00932250041775" parking="true" duration="60" friendlyPos="true" /><stop lane="-1297736029_0" endPos="0.0" parking="true" duration="60" friendlyPos="true" /><stop lane="24064067#0_0" endPos="66.68411509039693" parking="true" duration="60" friendlyPos="true" /><stop lane="-462372648_0" endPos="0.0" parking="true" duration="60" friendlyPos="true" /><stop lane="-19886578#1_0" endPos="41.672310854822214" parking="true" duration="60" friendlyPos="true" /><stop lane="7994502#11_0" endPos="79.15036666567794" parking="true" duration="60" friendlyPos="true" /><stop lane="377438955#0_0" endPos="57.437933456248274" parking="true" duration="60" friendlyPos="true" /><stop lane="73086556#4_0" endPos="20.46308263426951" parking="true" duration="60" friendlyPos="true" /><stop lane="1292518262#0_0" endPos="6.667683255824335" parking="true" duration="60" friendlyPos="true" /><stop lane="-127381825#1_0" endPos="18.73170047211294" parking="true" duration="60" friendlyPos="true" /><stop lane="24257815#14_0" endPos="0.0" parking="true" duration="60" friendlyPos="true" /><stop lane="103917871#1_0" endPos="35.949857061936584" parking="true" duration="60" friendlyPos="true" /><stop lane="-266437160#2_0" endPos="0.7302608779738987" parking="true" duration="60" friendlyPos="true" /><stop lane="-362862812#3_0" endPos="20.147186898526268" parking="true" duration="60" friendlyPos="true" /><stop lane="4798776#0_0" endPos="65.7162410410667" parking="true" duration="60" friendlyPos="true" /><stop lane="-24009035#4_0" endPos="64.49430522630456" parking="true" duration="60" friendlyPos="true" /><stop lane="791793605#2_0" endPos="103.08498387751906" parking="true" duration="60" friendlyPos="true" /></trip><trip id="courier_1" type="myCourier" depart="0" from="-908811053" to="-908811053"><stop lane="361380070_0" endPos="87.31746756158755" parking="true" duration="60" friendlyPos="true" /><stop lane="-392365083#2_0" endPos="29.61673795344203" parking="true" duration="60" friendlyPos="true" /><stop lane="-7979180#8_0" endPos="10.818335038426218" parking="true" duration="60" friendlyPos="true" /><stop lane="-450469086#3_0" endPos="157.65784371374997" parking="true" duration="60" friendlyPos="true" /><stop lane="1167511576#1_0" endPos="5.621317033155836" parking="true" duration="60" friendlyPos="true" /><stop lane="129786621#2_0" endPos="89.8699914135705" parking="true" duration="60" friendlyPos="true" /><stop lane="129786621#2_0" endPos="51.85821080684432" parking="true" duration="60" friendlyPos="true" /><stop lane="39610477#2_0" endPos="187.85281580836238" parking="true" duration="60" friendlyPos="true" /><stop lane="832592530_0" endPos="21.826538891909046" parking="true" duration="60" friendlyPos="true" /><stop lane="1220453965#2_0" endPos="5.681549828529969" parking="true" duration="60" friendlyPos="true" /><stop lane="-298672959#7_0" endPos="0.0" parking="true" duration="60" friendlyPos="true" /><stop lane="124824611#4_0" endPos="13.313164821969092" parking="true" duration="60" friendlyPos="true" /><stop lane="165396011#3_0" endPos="67.48480345056173" parking="true" duration="60" friendlyPos="true" /><stop lane="-163695776#2_0" endPos="61.1959981541632" parking="true" duration="60" friendlyPos="true" /></trip><trip id="courier_2" type="myCourier" depart="0" from="-908811053" to="-908811053"><stop lane="-325384114#2_0" endPos="23.746082881927627" parking="true" duration="60" friendlyPos="true" /><stop lane="1205242324#1_0" endPos="43.99937693142526" parking="true" duration="60" friendlyPos="true" /><stop lane="38331253#4_0" endPos="77.17567956181679" parking="true" duration="60" friendlyPos="true" /><stop lane="974288547#0_0" endPos="50.874351387490606" parking="true" duration="60" friendlyPos="true" /><stop lane="377963796#0_0" endPos="98.67934342176588" parking="true" duration="60" friendlyPos="true" /><stop lane="-240657401#13_0" endPos="81.24222244844601" parking="true" duration="60" friendlyPos="true" /><stop lane="-1144915478#1_0" endPos="30.515478817789756" parking="true" duration="60" friendlyPos="true" /><stop lane="897170933_0" endPos="168.14132578623918" parking="true" duration="60" friendlyPos="true" /><stop lane="1245256628_0" endPos="217.79152035695049" parking="true" duration="60" friendlyPos="true" /><stop lane="-380542180_0" endPos="17.444292208362224" parking="true" duration="60" friendlyPos="true" /><stop lane="150855003_0" endPos="160.1046837082741" parking="true" duration="60" friendlyPos="true" /><stop lane="150854999_0" endPos="43.25758979398237" parking="true" duration="60" friendlyPos="true" /><stop lane="124457031_0" endPos="20.637747459325855" parking="true" duration="60" friendlyPos="true" /><stop lane="-150855016_0" endPos="106.53794746848628" parking="true" duration="60" friendlyPos="true" /><stop lane="-124457040_0" endPos="124.75103662794642" parking="true" duration="60" friendlyPos="true" /><stop lane="-153688235_0" endPos="39.64516801886682" parking="true" duration="60" friendlyPos="true" /><stop lane="87575610_0" endPos="134.02833206622284" parking="true" duration="60" friendlyPos="true" /><stop lane="-144932769#18_0" endPos="67.78296006184272" parking="true" duration="60" friendlyPos="true" /><stop lane="-60334585#4_0" endPos="46.734845544771986" parking="true" duration="60" friendlyPos="true" /><stop lane="-636535730_0" endPos="101.5488852167771" parking="true" duration="60" friendlyPos="true" /><stop lane="153146981#2_0" endPos="2.4696152177287605" parking="true" duration="60" friendlyPos="true" /><stop lane="-1111206649_0" endPos="0.0" parking="true" duration="60" friendlyPos="true" /><stop lane="-90456742#1_0" endPos="56.08490428633617" parking="true" duration="60" friendlyPos="true" /><stop lane="1060828882_0" endPos="0.0" parking="true" duration="60" friendlyPos="true" /><stop lane="1056263235_0" endPos="12.629446850672936" parking="true" duration="60" friendlyPos="true" /><stop lane="-892363667_0" endPos="0.0" parking="true" duration="60" friendlyPos="true" /><stop lane="-892363665_0" endPos="0.0" parking="true" duration="60" friendlyPos="true" /></trip><trip id="courier_3" type="myCourier" depart="0" from="-908811053" to="-908811053"><stop lane="34890086#1_0" endPos="43.40736350754829" parking="true" duration="60" friendlyPos="true" /><stop lane="8073392#0_0" endPos="33.92503344562576" parking="true" duration="60" friendlyPos="true" /><stop lane="-427089694#6_0" endPos="104.80478235742956" parking="true" duration="60" friendlyPos="true" /><stop lane="41791074#0_0" endPos="198.5098801244863" parking="true" duration="60" friendlyPos="true" /><stop lane="1105974235#2_0" endPos="45.049958522463626" parking="true" duration="60" friendlyPos="true" /><stop lane="44452602#5_0" endPos="14.789576570090114" parking="true" duration="60" friendlyPos="true" /><stop lane="321536730#9_0" endPos="11.554720244665893" parking="true" duration="60" friendlyPos="true" /><stop lane="-1042536057_0" endPos="450.38075017944175" parking="true" duration="60" friendlyPos="true" /><stop lane="-392232683#0_0" endPos="11.210483538668711" parking="true" duration="60" friendlyPos="true" /><stop lane="475833816#8_0" endPos="6.897485048914941" parking="true" duration="60" friendlyPos="true" /><stop lane="274825775#3_0" endPos="17.49651040144786" parking="true" duration="60" friendlyPos="true" /><stop lane="17436114#0_0" endPos="46.693765703869445" parking="true" duration="60" friendlyPos="true" /><stop lane="-131640699#0_0" endPos="97.26232900802852" parking="true" duration="60" friendlyPos="true" /><stop lane="131640700#0_0" endPos="115.61765085740734" parking="true" duration="60" friendlyPos="true" /><stop lane="364161339#2_0" endPos="42.68463649107204" parking="true" duration="60" friendlyPos="true" /><stop lane="1349109818_0" endPos="49.06857632285868" parking="true" duration="60" friendlyPos="true" /><stop lane="-1287275698#2_0" endPos="6.186517598779573" parking="true" duration="60" friendlyPos="true" /><stop lane="-910324730_0" endPos="35.76704991179366" parking="true" duration="60" friendlyPos="true" /><stop lane="11016780#2_0" endPos="26.442438972023208" parking="true" duration="60" friendlyPos="true" /><stop lane="-1177576154#2_0" endPos="20.461303328030443" parking="true" duration="60" friendlyPos="true" /><stop lane="-1252328379#1_0" endPos="43.310059220123264" parking="true" duration="60" friendlyPos="true" /><stop lane="27460320#1_0" endPos="112.29051069894018" parking="true" duration="60" friendlyPos="true" /><stop lane="218722719#2_0" endPos="12.807456908264262" parking="true" duration="60" friendlyPos="true" /><stop lane="910312085#1_0" endPos="2.889046756862654" parking="true" duration="60" friendlyPos="true" /><stop lane="-141330996#8_0" endPos="23.920690248209148" parking="true" duration="60" friendlyPos="true" /><stop lane="4367295#12_0" endPos="15.947156492373251" parking="true" duration="60" friendlyPos="true" /><stop lane="910683499_0" endPos="15.582749980221166" parking="true" duration="60" friendlyPos="true" /><stop lane="42424264#0_0" endPos="35.51836247042944" parking="true" duration="60" friendlyPos="true" /><stop lane="37745571#4_0" endPos="13.528335167555921" parking="true" duration="60" friendlyPos="true" /><stop lane="-161250706#1_0" endPos="23.36702346874155" parking="true" duration="60" friendlyPos="true" /><stop lane="-273229259_0" endPos="90.29146890172939" parking="true" duration="60" friendlyPos="true" /><stop lane="415056978#0_0" endPos="12.089835747914318" parking="true" duration="60" friendlyPos="true" /><stop lane="-23544932#9_0" endPos="66.50699181471597" parking="true" duration="60" friendlyPos="true" /><stop lane="4762142#2_0" endPos="118.9819994905298" parking="true" duration="60" friendlyPos="true" /><stop lane="173198396#7_0" endPos="10.615721737525341" parking="true" duration="60" friendlyPos="true" /><stop lane="-1287040607_0" endPos="14.126205033857742" parking="true" duration="60" friendlyPos="true" /><stop lane="-522866676#2_0" endPos="14.62804050995432" parking="true" duration="60" friendlyPos="true" /></trip></routes>