<?xml version="1.0" encoding="UTF-8"?>

<!-- generated on 2025-03-31 15:01:30.478594 by randomTrips.py v1_22_0+0002-63e50f52594
<configuration>
    <net-file value="simulation_files/riga.net.xml"/>
    <additional-files value="simulation_files/vehicle_types.xml"/>
    <output-trip-file value="simulation_files/riga.trips.xml"/>
    <trip-attributes value="type=&quot;myCar&quot;"/>
    <validate value="True"/>
    <end value="1000.0"/>
</configuration>
-->

<!-- generated on 2025-03-31 15:01:19 by Eclipse SUMO duarouter Version 1.22.0
<duarouterConfiguration xmlns:xsi="http://www.w3.org/2001/XMLSchema-instance" xsi:noNamespaceSchemaLocation="http://sumo.dlr.de/xsd/duarouterConfiguration.xsd">

    <input>
        <net-file value="simulation_files/riga.net.xml"/>
        <additional-files value="simulation_files/vehicle_types.xml"/>
        <route-files value="simulation_files/riga.trips.xml"/>
    </input>

    <output>
        <output-file value="simulation_files/riga.trips.xml.tmp"/>
        <alternatives-output value="NUL"/>
        <write-trips value="true"/>
    </output>

    <time>
        <begin value="0"/>
        <end value="1000.0"/>
    </time>

    <report>
        <no-warnings value="true"/>
        <ignore-errors value="true"/>
        <no-step-log value="true"/>
    </report>

</duarouterConfiguration>
-->

<routes xmlns:xsi="http://www.w3.org/2001/XMLSchema-instance" xsi:noNamespaceSchemaLocation="http://sumo.dlr.de/xsd/routes_file.xsd">
    <vType id="myCar" maxSpeed="180.00" vClass="passenger"/>
    <trip id="0" type="myCar" depart="0.00" from="210207084#0" to="-112876891#6"/>
    <trip id="1" type="myCar" depart="1.00" from="-43967198#19" to="-346330529#0"/>
    <trip id="2" type="myCar" depart="2.00" from="35544269" to="242406282#4"/>
    <trip id="3" type="myCar" depart="3.00" from="5737373#9" to="-1354366984#0"/>
    <trip id="5" type="myCar" depart="5.00" from="-323217751#0" to="1218120928#0"/>
    <trip id="6" type="myCar" depart="6.00" from="-113879411#0" to="-26748019#4"/>
    <trip id="7" type="myCar" depart="7.00" from="217952899#0" to="132489381#3"/>
    <trip id="8" type="myCar" depart="8.00" from="-327117256#6" to="158305146"/>
    <trip id="9" type="myCar" depart="9.00" from="44731129#18" to="-103894827#1"/>
    <trip id="10" type="myCar" depart="10.00" from="4470500#6" to="27509552#3"/>
    <trip id="11" type="myCar" depart="11.00" from="-521375863#26" to="-217186419"/>
    <trip id="12" type="myCar" depart="12.00" from="825483377#2" to="-522866707#24"/>
    <trip id="13" type="myCar" depart="13.00" from="-137643624#1" to="-145485429#9"/>
    <trip id="14" type="myCar" depart="14.00" from="493682399#0" to="170479316#21"/>
    <trip id="15" type="myCar" depart="15.00" from="4472933#11" to="353054885"/>
    <trip id="16" type="myCar" depart="16.00" from="128683080" to="892767293#0"/>
    <trip id="17" type="myCar" depart="17.00" from="-67917660#0" to="133885302#0"/>
    <trip id="18" type="myCar" depart="18.00" from="4760137#3" to="185443447"/>
    <trip id="19" type="myCar" depart="19.00" from="50831832#19" to="151166961#0"/>
    <trip id="20" type="myCar" depart="20.00" from="27653899#2" to="-120729615#1"/>
    <trip id="21" type="myCar" depart="21.00" from="-350918054#1" to="-4588048#5"/>
    <trip id="22" type="myCar" depart="22.00" from="-132783245#3" to="-366469093#1"/>
    <trip id="23" type="myCar" depart="23.00" from="-146892743" to="-4463355#5"/>
    <trip id="24" type="myCar" depart="24.00" from="203411557#3" to="-641956030"/>
    <trip id="26" type="myCar" depart="26.00" from="-43589068#6" to="790296474#8"/>
    <trip id="27" type="myCar" depart="27.00" from="217480760#3" to="174136433#0"/>
    <trip id="28" type="myCar" depart="28.00" from="-23076941#2" to="35064833#7"/>
    <trip id="30" type="myCar" depart="30.00" from="954825653#7" to="217187993#3"/>
    <trip id="31" type="myCar" depart="31.00" from="1337310883#1" to="25609733#11"/>
    <trip id="32" type="myCar" depart="32.00" from="4890466#3" to="420733220#7"/>
    <trip id="33" type="myCar" depart="33.00" from="-355139543#2" to="-1160150595#0"/>
    <trip id="34" type="myCar" depart="34.00" from="-4930227#0" to="-4388680#7"/>
    <trip id="35" type="myCar" depart="35.00" from="-287047484" to="799024324#3"/>
    <trip id="36" type="myCar" depart="36.00" from="52347639#1" to="-493682414#0"/>
    <trip id="37" type="myCar" depart="37.00" from="222473687#1" to="-7979400#2"/>
    <trip id="38" type="myCar" depart="38.00" from="675623410#17" to="10698405#0"/>
    <trip id="39" type="myCar" depart="39.00" from="-426310649#3" to="-384817904#5"/>
    <trip id="40" type="myCar" depart="40.00" from="1343768981#2" to="-43589068#2"/>
    <trip id="41" type="myCar" depart="41.00" from="151630203#1" to="60850165#2"/>
    <trip id="42" type="myCar" depart="42.00" from="-794753775#0" to="-33363129#0"/>
    <trip id="43" type="myCar" depart="43.00" from="98843823#3" to="1231227843#8"/>
    <trip id="44" type="myCar" depart="44.00" from="-136518300#1" to="-1209862187#4"/>
    <trip id="45" type="myCar" depart="45.00" from="-153688222#0" to="20009892#5"/>
    <trip id="46" type="myCar" depart="46.00" from="4388695#0" to="-893369859#0"/>
    <trip id="47" type="myCar" depart="47.00" from="-126906116#9" to="-729403890#2"/>
    <trip id="48" type="myCar" depart="48.00" from="983720635#0" to="1286572564"/>
    <trip id="49" type="myCar" depart="49.00" from="88373645#0" to="5086307#0"/>
    <trip id="50" type="myCar" depart="50.00" from="-1063200623#2" to="328536640#1"/>
    <trip id="51" type="myCar" depart="51.00" from="240657400#2" to="129982855#2"/>
    <trip id="52" type="myCar" depart="52.00" from="-435507521#6" to="217350118#1"/>
    <trip id="53" type="myCar" depart="53.00" from="-154763871#3" to="-951733785"/>
    <trip id="54" type="myCar" depart="54.00" from="100974119#9" to="816701537#9"/>
    <trip id="55" type="myCar" depart="55.00" from="52347617#2" to="-4365719#1"/>
    <trip id="56" type="myCar" depart="56.00" from="117571686#22" to="-23724861#6"/>
    <trip id="57" type="myCar" depart="57.00" from="670071002#0" to="521375863#19"/>
    <trip id="58" type="myCar" depart="58.00" from="-4692105#3" to="216524869#11"/>
    <trip id="59" type="myCar" depart="59.00" from="169620080#7" to="-213579976#0"/>
    <trip id="60" type="myCar" depart="60.00" from="38328336#2" to="1303678632"/>
    <trip id="61" type="myCar" depart="61.00" from="417604678#0" to="1288653554#4"/>
    <trip id="62" type="myCar" depart="62.00" from="-1004445883#3" to="-5016513#2"/>
    <trip id="63" type="myCar" depart="63.00" from="-1106651249#6" to="757234671#20"/>
    <trip id="64" type="myCar" depart="64.00" from="535245139#4" to="479850150#4"/>
    <trip id="65" type="myCar" depart="65.00" from="-479850148#0" to="-124713385#16"/>
    <trip id="66" type="myCar" depart="66.00" from="533099321#0" to="80500313#0"/>
    <trip id="67" type="myCar" depart="67.00" from="-1342400814#3" to="1162105150#2"/>
    <trip id="68" type="myCar" depart="68.00" from="-129146514#8" to="38690333#2"/>
    <trip id="69" type="myCar" depart="69.00" from="38705343#3" to="-172946891#4"/>
    <trip id="70" type="myCar" depart="70.00" from="1105364754#7" to="133683910#6"/>
    <trip id="71" type="myCar" depart="71.00" from="-42687406#1" to="522866708"/>
    <trip id="72" type="myCar" depart="72.00" from="-875496926#1" to="-300334267#6"/>
    <trip id="73" type="myCar" depart="73.00" from="129146494#3" to="35332798#0"/>
    <trip id="74" type="myCar" depart="74.00" from="-269102941#1" to="-4930232#3"/>
    <trip id="75" type="myCar" depart="75.00" from="97938546#9" to="223520688#2"/>
    <trip id="76" type="myCar" depart="76.00" from="-93590059#2" to="124551635#0"/>
    <trip id="78" type="myCar" depart="78.00" from="-5150689#9" to="157319423#3"/>
    <trip id="79" type="myCar" depart="79.00" from="-35572767#6" to="-335032850#4"/>
    <trip id="80" type="myCar" depart="80.00" from="-129786621#1" to="206102443#2"/>
    <trip id="81" type="myCar" depart="81.00" from="-354322895#2" to="64880475#0"/>
    <trip id="82" type="myCar" depart="82.00" from="5016533#10" to="-1300894383"/>
    <trip id="83" type="myCar" depart="83.00" from="-36918253#3" to="23776425#6"/>
    <trip id="84" type="myCar" depart="84.00" from="-30129958#4" to="-174569579#0"/>
    <trip id="85" type="myCar" depart="85.00" from="772011869#0" to="145485435#2"/>
    <trip id="86" type="myCar" depart="86.00" from="1093414185#3" to="4372673#4"/>
    <trip id="87" type="myCar" depart="87.00" from="4473050#4" to="-24909676#1"/>
    <trip id="88" type="myCar" depart="88.00" from="-144932730#4" to="-93590062#12"/>
    <trip id="89" type="myCar" depart="89.00" from="-87575592#6" to="11019418#0"/>
    <trip id="90" type="myCar" depart="90.00" from="335039814#0" to="24008337#0"/>
    <trip id="91" type="myCar" depart="91.00" from="93590062#9" to="-145656967#19"/>
    <trip id="92" type="myCar" depart="92.00" from="-7979633#1" to="-53448134#2"/>
    <trip id="93" type="myCar" depart="93.00" from="50831832#18" to="-38749991#0"/>
    <trip id="94" type="myCar" depart="94.00" from="-24648212#5" to="1019385051#0"/>
    <trip id="95" type="myCar" depart="95.00" from="-8662982#3" to="-4470501#8"/>
    <trip id="96" type="myCar" depart="96.00" from="-38481072#5" to="72893135#3"/>
    <trip id="97" type="myCar" depart="97.00" from="-95933746#4" to="5086319#2-AddedOnRampEdge"/>
    <trip id="98" type="myCar" depart="98.00" from="131759717#0" to="-1222735177#4"/>
    <trip id="99" type="myCar" depart="99.00" from="996079965#1" to="4853528#3"/>
    <trip id="100" type="myCar" depart="100.00" from="87575592#7" to="74152855#2"/>
    <trip id="101" type="myCar" depart="101.00" from="493901660#2" to="-22787969#1"/>
    <trip id="102" type="myCar" depart="102.00" from="113879416" to="-309913008"/>
    <trip id="103" type="myCar" depart="103.00" from="-7979394#1" to="-1249112558#1"/>
    <trip id="104" type="myCar" depart="104.00" from="-682732836#2" to="93948763#4"/>
    <trip id="105" type="myCar" depart="105.00" from="-42691024#3" to="4372094#0"/>
    <trip id="106" type="myCar" depart="106.00" from="1011790168" to="-894264587"/>
    <trip id="107" type="myCar" depart="107.00" from="825934144" to="97939166#2"/>
    <trip id="108" type="myCar" depart="108.00" from="1335133115#1" to="323217751#2"/>
    <trip id="109" type="myCar" depart="109.00" from="-21364969#1" to="-4744684#11"/>
    <trip id="110" type="myCar" depart="110.00" from="875579072" to="151676218#1"/>
    <trip id="111" type="myCar" depart="111.00" from="129591475#5" to="376343439#4"/>
    <trip id="112" type="myCar" depart="112.00" from="-124457041#2" to="154256110#4"/>
    <trip id="113" type="myCar" depart="113.00" from="118102398#3" to="5006945#4"/>
    <trip id="114" type="myCar" depart="114.00" from="-217187581#8" to="8555431#15"/>
    <trip id="115" type="myCar" depart="115.00" from="-1329070241#1" to="-24258435#3"/>
    <trip id="116" type="myCar" depart="116.00" from="157811767#0" to="240657399#2"/>
    <trip id="117" type="myCar" depart="117.00" from="-365549702#0" to="-163191482#9"/>
    <trip id="118" type="myCar" depart="118.00" from="56241842#17" to="-383543799"/>
    <trip id="119" type="myCar" depart="119.00" from="157264085#0" to="187893576#2"/>
    <trip id="120" type="myCar" depart="120.00" from="-86383399#0" to="154080848#0"/>
    <trip id="121" type="myCar" depart="121.00" from="124457031" to="78056543#1"/>
    <trip id="122" type="myCar" depart="122.00" from="-27653902#14" to="313029615"/>
    <trip id="123" type="myCar" depart="123.00" from="-36965022#25" to="-7979403#3"/>
    <trip id="124" type="myCar" depart="124.00" from="23601152#1" to="-4762494#12"/>
    <trip id="125" type="myCar" depart="125.00" from="-4930283#1" to="377438958#1"/>
    <trip id="126" type="myCar" depart="126.00" from="-130102741" to="1067581078#3"/>
    <trip id="127" type="myCar" depart="127.00" from="990945169" to="983030773#0"/>
    <trip id="128" type="myCar" depart="128.00" from="-130181754#6" to="-308712982#0"/>
    <trip id="129" type="myCar" depart="129.00" from="-42691024#2" to="7717146#13"/>
    <trip id="130" type="myCar" depart="130.00" from="542589512#0" to="54374978#6"/>
    <trip id="131" type="myCar" depart="131.00" from="-63990569#2" to="-217478323#0"/>
    <trip id="132" type="myCar" depart="132.00" from="478845010#0" to="28145750"/>
    <trip id="133" type="myCar" depart="133.00" from="172131004" to="945443747#1"/>
    <trip id="134" type="myCar" depart="134.00" from="220569925#0" to="-1041917997"/>
    <trip id="135" type="myCar" depart="135.00" from="4581253#1" to="-4762095#15"/>
    <trip id="136" type="myCar" depart="136.00" from="23163175#4" to="794753773#0"/>
    <trip id="137" type="myCar" depart="137.00" from="-174569582#11" to="-160160384#3"/>
    <trip id="138" type="myCar" depart="138.00" from="-153130830#1" to="1339806284#0"/>
    <trip id="139" type="myCar" depart="139.00" from="-438893707#1" to="171598135#4"/>
    <trip id="140" type="myCar" depart="140.00" from="298894521" to="-277166727#22"/>
    <trip id="141" type="myCar" depart="141.00" from="200261937#1" to="-4367297#8"/>
    <trip id="142" type="myCar" depart="142.00" from="114553685#3" to="64880303#4"/>
    <trip id="143" type="myCar" depart="143.00" from="4930349#5" to="-138662903#12"/>
    <trip id="144" type="myCar" depart="144.00" from="-87575592#6" to="-44451026#2"/>
    <trip id="145" type="myCar" depart="145.00" from="-1019395058#1" to="41126181#4"/>
    <trip id="146" type="myCar" depart="146.00" from="206168985#0" to="-43206811#1"/>
    <trip id="147" type="myCar" depart="147.00" from="364472500#3" to="133884854"/>
    <trip id="148" type="myCar" depart="148.00" from="-89145592#0" to="-1056850577#2"/>
    <trip id="149" type="myCar" depart="149.00" from="-131107283#1" to="54930294#45"/>
    <trip id="150" type="myCar" depart="150.00" from="63746790#5" to="132489390#16"/>
    <trip id="151" type="myCar" depart="151.00" from="479748206" to="153688159#3"/>
    <trip id="152" type="myCar" depart="152.00" from="-201337560#9" to="-17250397#6"/>
    <trip id="153" type="myCar" depart="153.00" from="-4807887#7" to="60979983#1"/>
    <trip id="154" type="myCar" depart="154.00" from="43967197" to="5086172#3"/>
    <trip id="155" type="myCar" depart="155.00" from="60334583#10" to="-292426613#1"/>
    <trip id="156" type="myCar" depart="156.00" from="-38420862#1" to="-151227752#3"/>
    <trip id="157" type="myCar" depart="157.00" from="42423493#0" to="55608089#15"/>
    <trip id="158" type="myCar" depart="158.00" from="-8072694#6" to="190477476#17"/>
    <trip id="159" type="myCar" depart="159.00" from="-211923893#2" to="758688394#1"/>
    <trip id="160" type="myCar" depart="160.00" from="50914138#2" to="90460173#0"/>
    <trip id="161" type="myCar" depart="161.00" from="4498161#1" to="545902242#6"/>
    <trip id="162" type="myCar" depart="162.00" from="-1127997765#2" to="364472501#5"/>
    <trip id="163" type="myCar" depart="163.00" from="-50831851#1" to="762974009#1"/>
    <trip id="164" type="myCar" depart="164.00" from="4435141" to="5094795#24"/>
    <trip id="165" type="myCar" depart="165.00" from="4498161#0" to="-4377401#4"/>
    <trip id="166" type="myCar" depart="166.00" from="4371283#3" to="-153688214#2"/>
    <trip id="167" type="myCar" depart="167.00" from="5168933#11" to="50831831#15"/>
    <trip id="168" type="myCar" depart="168.00" from="-335032850#3" to="4637693#13"/>
    <trip id="169" type="myCar" depart="169.00" from="103917888#4" to="-4849967#1"/>
    <trip id="170" type="myCar" depart="170.00" from="43945956#0" to="-35572767#0"/>
    <trip id="171" type="myCar" depart="171.00" from="-1126047106#1" to="-25728413"/>
    <trip id="172" type="myCar" depart="172.00" from="-5009975#6" to="5094858"/>
    <trip id="173" type="myCar" depart="173.00" from="865691525#1" to="-4472859#1"/>
    <trip id="174" type="myCar" depart="174.00" from="211146747#0" to="-804338811#8"/>
    <trip id="175" type="myCar" depart="175.00" from="91758818#0" to="129814120#4"/>
    <trip id="176" type="myCar" depart="176.00" from="791299201#2" to="-160160383#2"/>
    <trip id="177" type="myCar" depart="177.00" from="8797877#8" to="-23718907"/>
    <trip id="178" type="myCar" depart="178.00" from="8555435#0" to="-4374986#0"/>
    <trip id="179" type="myCar" depart="179.00" from="-153469266#1" to="-947921802#6"/>
    <trip id="180" type="myCar" depart="180.00" from="334834356#18" to="-4936424#6"/>
    <trip id="181" type="myCar" depart="181.00" from="166625242#4" to="1233490217#0"/>
    <trip id="182" type="myCar" depart="182.00" from="-725851950#7" to="150855049#1"/>
    <trip id="183" type="myCar" depart="183.00" from="-39611418#14" to="289123184"/>
    <trip id="184" type="myCar" depart="184.00" from="-100974123#4" to="739439760#3"/>
    <trip id="186" type="myCar" depart="186.00" from="364739273#9" to="23902831#5"/>
    <trip id="187" type="myCar" depart="187.00" from="-60334586#0" to="-129786621#0"/>
    <trip id="188" type="myCar" depart="188.00" from="23205271#4" to="-5094786#4"/>
    <trip id="189" type="myCar" depart="189.00" from="-4886636#2" to="495193584#2"/>
    <trip id="190" type="myCar" depart="190.00" from="30606555#0" to="-4762494#9"/>
    <trip id="191" type="myCar" depart="191.00" from="-483194983#1" to="-837147059#3"/>
    <trip id="192" type="myCar" depart="192.00" from="-7979626#3" to="-4722973#0"/>
    <trip id="193" type="myCar" depart="193.00" from="-169684276#7" to="-89037750#9"/>
    <trip id="194" type="myCar" depart="194.00" from="792130302#5" to="24257927#2"/>
    <trip id="195" type="myCar" depart="195.00" from="626888069#2" to="17705103#5"/>
    <trip id="196" type="myCar" depart="196.00" from="-4744682#6" to="132952342#6"/>
    <trip id="197" type="myCar" depart="197.00" from="-100290026#1" to="-4539840#2"/>
    <trip id="198" type="myCar" depart="198.00" from="-896640823#4" to="152598682"/>
    <trip id="199" type="myCar" depart="199.00" from="220970637#8" to="1093414183#2"/>
    <trip id="200" type="myCar" depart="200.00" from="-951733785" to="-309391892#7"/>
    <trip id="201" type="myCar" depart="201.00" from="1096942644#2" to="630895823#2"/>
    <trip id="202" type="myCar" depart="202.00" from="43962472#0" to="-23076941#4"/>
    <trip id="203" type="myCar" depart="203.00" from="-1339806284#1" to="124457029#1"/>
    <trip id="204" type="myCar" depart="204.00" from="20007871#7" to="-521375863#22"/>
    <trip id="205" type="myCar" depart="205.00" from="4588050#4" to="376954648#3"/>
    <trip id="207" type="myCar" depart="207.00" from="-26561178#4" to="-1127997765#0"/>
    <trip id="208" type="myCar" depart="208.00" from="-37825307#1" to="1126182942#2"/>
    <trip id="209" type="myCar" depart="209.00" from="49431946#0" to="-130483938#6"/>
    <trip id="210" type="myCar" depart="210.00" from="-8403011#0" to="203322120"/>
    <trip id="211" type="myCar" depart="211.00" from="-25728003#3" to="27176819#5"/>
    <trip id="212" type="myCar" depart="212.00" from="116521355#3" to="-37976649#1"/>
    <trip id="213" type="myCar" depart="213.00" from="223519316#15" to="-1033339776#5"/>
    <trip id="214" type="myCar" depart="214.00" from="374813579#2" to="40707724#0"/>
    <trip id="215" type="myCar" depart="215.00" from="-152376003#4" to="-90513548#8"/>
    <trip id="216" type="myCar" depart="216.00" from="-23373336#4" to="84130080#3"/>
    <trip id="217" type="myCar" depart="217.00" from="1233479452" to="-1221993644#1"/>
    <trip id="218" type="myCar" depart="218.00" from="-38331256#8" to="495435097#2"/>
    <trip id="219" type="myCar" depart="219.00" from="1021349333#1" to="4453049#3"/>
    <trip id="220" type="myCar" depart="220.00" from="233451158" to="946158767#1"/>
    <trip id="221" type="myCar" depart="221.00" from="157821006#0" to="809601526#3"/>
    <trip id="222" type="myCar" depart="222.00" from="56315965#9" to="174569582#8"/>
    <trip id="223" type="myCar" depart="223.00" from="30153759#2" to="121481131#2"/>
    <trip id="224" type="myCar" depart="224.00" from="4762095#9" to="132952342#2"/>
    <trip id="225" type="myCar" depart="225.00" from="60157719#0" to="370700008#0"/>
    <trip id="226" type="myCar" depart="226.00" from="11019419#0" to="-42075190#1"/>
    <trip id="227" type="myCar" depart="227.00" from="-380535193" to="215377562#1"/>
    <trip id="228" type="myCar" depart="228.00" from="38705343#2" to="126049639#2"/>
    <trip id="229" type="myCar" depart="229.00" from="190477476#25" to="-441662887#1"/>
    <trip id="230" type="myCar" depart="230.00" from="-132021641#3" to="-45278096#17"/>
    <trip id="231" type="myCar" depart="231.00" from="-4388680#16" to="-4995025#12"/>
    <trip id="232" type="myCar" depart="232.00" from="129146513#0" to="-188466306#3"/>
    <trip id="233" type="myCar" depart="233.00" from="-361380073#1" to="26772566#4"/>
    <trip id="234" type="myCar" depart="234.00" from="277166727#34" to="-128219730#8"/>
    <trip id="235" type="myCar" depart="235.00" from="-8083246#0" to="131285085#4"/>
    <trip id="236" type="myCar" depart="236.00" from="-8477182#6" to="-282866125#9"/>
    <trip id="237" type="myCar" depart="237.00" from="-86383736#9" to="648794620#6"/>
    <trip id="238" type="myCar" depart="238.00" from="151442261#2" to="27021839#5"/>
    <trip id="239" type="myCar" depart="239.00" from="5006956#22" to="39611418#15"/>
    <trip id="240" type="myCar" depart="240.00" from="-69682329#6" to="-103891108#2"/>
    <trip id="241" type="myCar" depart="241.00" from="-552607113#1" to="378283644"/>
    <trip id="242" type="myCar" depart="242.00" from="4994928#1" to="816701536#2"/>
    <trip id="244" type="myCar" depart="244.00" from="1303678631#2" to="169686519#2"/>
    <trip id="245" type="myCar" depart="245.00" from="-32816832#1" to="-333800999#1"/>
    <trip id="246" type="myCar" depart="246.00" from="-91758821#1" to="-1150166472#1"/>
    <trip id="247" type="myCar" depart="247.00" from="-5094862#3" to="24537330#0"/>
    <trip id="248" type="myCar" depart="248.00" from="-800459702#0" to="-223782901#2"/>
    <trip id="249" type="myCar" depart="249.00" from="10700213#9" to="-17250404#2"/>
    <trip id="250" type="myCar" depart="250.00" from="183036818#0" to="-114012085#1"/>
    <trip id="251" type="myCar" depart="251.00" from="-77119054#2" to="137449288#5"/>
    <trip id="252" type="myCar" depart="252.00" from="-114012081#3" to="217638108#0"/>
    <trip id="253" type="myCar" depart="253.00" from="-17504487#7" to="1082495684"/>
    <trip id="254" type="myCar" depart="254.00" from="-1219477077#0" to="-72408254#2"/>
    <trip id="255" type="myCar" depart="255.00" from="-29103219#1" to="-50831843#3"/>
    <trip id="256" type="myCar" depart="256.00" from="380542183#2" to="-72408254#4"/>
    <trip id="257" type="myCar" depart="257.00" from="376037661" to="4798799#3"/>
    <trip id="258" type="myCar" depart="258.00" from="-38788860#3" to="-133875518#11"/>
    <trip id="259" type="myCar" depart="259.00" from="-1106651249#0" to="1303944487#0"/>
    <trip id="260" type="myCar" depart="260.00" from="99892115#0" to="-56241840#11"/>
    <trip id="261" type="myCar" depart="261.00" from="217953419#5" to="4365720#3"/>
    <trip id="262" type="myCar" depart="262.00" from="218723476#2" to="37850959#0"/>
    <trip id="263" type="myCar" depart="263.00" from="807740780#1" to="-26960793#0"/>
    <trip id="264" type="myCar" depart="264.00" from="-111480934#5" to="-211149390#5"/>
    <trip id="266" type="myCar" depart="266.00" from="135355975#2" to="-32653726#3"/>
    <trip id="267" type="myCar" depart="267.00" from="26747992#0" to="39896067#3"/>
    <trip id="268" type="myCar" depart="268.00" from="-22888743#2" to="172649782#0"/>
    <trip id="269" type="myCar" depart="269.00" from="36965025#17" to="-159295369#3"/>
    <trip id="270" type="myCar" depart="270.00" from="4637689#22" to="86484367#2"/>
    <trip id="271" type="myCar" depart="271.00" from="-153239061" to="-113599162#33"/>
    <trip id="272" type="myCar" depart="272.00" from="-4858310#7" to="24257927#4"/>
    <trip id="273" type="myCar" depart="273.00" from="827484919#1" to="-7979630#0"/>
    <trip id="274" type="myCar" depart="274.00" from="29103219#0" to="-131896369"/>
    <trip id="276" type="myCar" depart="276.00" from="-149509743#1" to="41213116#17"/>
    <trip id="277" type="myCar" depart="277.00" from="49478623#1" to="166885051"/>
    <trip id="278" type="myCar" depart="278.00" from="-162384063#3" to="93639040#3"/>
    <trip id="279" type="myCar" depart="279.00" from="429166134#2" to="-55608089#10"/>
    <trip id="280" type="myCar" depart="280.00" from="-89206921#5" to="-670690039#3"/>
    <trip id="281" type="myCar" depart="281.00" from="119029908#3" to="-539825365#3"/>
    <trip id="282" type="myCar" depart="282.00" from="494137627#0" to="4717137#0"/>
    <trip id="283" type="myCar" depart="283.00" from="-151663669#2" to="8555431#15"/>
    <trip id="284" type="myCar" depart="284.00" from="202526654#2" to="47638510#0"/>
    <trip id="285" type="myCar" depart="285.00" from="277373816#11" to="-954930215#10"/>
    <trip id="286" type="myCar" depart="286.00" from="34927157#0" to="865691527#1"/>
    <trip id="287" type="myCar" depart="287.00" from="-4375001#1" to="4498228#9"/>
    <trip id="289" type="myCar" depart="289.00" from="-91758807#5" to="355139544#1"/>
    <trip id="290" type="myCar" depart="290.00" from="-4370484#3" to="4997849#8"/>
    <trip id="291" type="myCar" depart="291.00" from="4762097#9" to="-135370447#3"/>
    <trip id="292" type="myCar" depart="292.00" from="54374974#0" to="-37974034#7"/>
    <trip id="293" type="myCar" depart="293.00" from="1059539599" to="17452589#4"/>
    <trip id="294" type="myCar" depart="294.00" from="-683090820" to="-1144957293#0"/>
    <trip id="295" type="myCar" depart="295.00" from="495435095#0" to="-23909868#1"/>
    <trip id="296" type="myCar" depart="296.00" from="-29214774#1" to="4418612#0"/>
    <trip id="297" type="myCar" depart="297.00" from="-521375863#31" to="54563015#0"/>
    <trip id="298" type="myCar" depart="298.00" from="26999808#6" to="-44450562#4"/>
    <trip id="299" type="myCar" depart="299.00" from="-1059036061#1" to="808198453#0"/>
    <trip id="300" type="myCar" depart="300.00" from="-1342400814#1" to="32653726#9"/>
    <trip id="301" type="myCar" depart="301.00" from="114553685#5" to="38330910#0"/>
    <trip id="303" type="myCar" depart="303.00" from="115761229#2" to="43967198#26"/>
    <trip id="304" type="myCar" depart="304.00" from="-138248539#3" to="-340881105#8"/>
    <trip id="305" type="myCar" depart="305.00" from="25698330#2" to="-4853265#6"/>
    <trip id="306" type="myCar" depart="306.00" from="150662890#2" to="1119791420"/>
    <trip id="307" type="myCar" depart="307.00" from="126549156#3" to="-905412428#1"/>
    <trip id="308" type="myCar" depart="308.00" from="368599923#4" to="-5094795#25"/>
    <trip id="309" type="myCar" depart="309.00" from="27261087#6" to="-43967198#23"/>
    <trip id="310" type="myCar" depart="310.00" from="-38705332#16" to="-163763750#23"/>
    <trip id="311" type="myCar" depart="311.00" from="-24909866#2" to="-163051512"/>
    <trip id="312" type="myCar" depart="312.00" from="1286572555" to="38749994#6"/>
    <trip id="313" type="myCar" depart="313.00" from="-24008341" to="-322625675#1"/>
    <trip id="314" type="myCar" depart="314.00" from="112876891#6" to="338461724#0"/>
    <trip id="316" type="myCar" depart="316.00" from="-4470652#10" to="-150662889"/>
    <trip id="317" type="myCar" depart="317.00" from="-25707661#3" to="-35564775#0"/>
    <trip id="319" type="myCar" depart="319.00" from="1282823846#1" to="-4414841#7"/>
    <trip id="320" type="myCar" depart="320.00" from="89206921#9" to="1339813068#0"/>
    <trip id="321" type="myCar" depart="321.00" from="26518079#6" to="-170479316#46"/>
    <trip id="322" type="myCar" depart="322.00" from="511791594#1" to="117031649#0"/>
    <trip id="323" type="myCar" depart="323.00" from="51822103#0" to="147260631#1"/>
    <trip id="324" type="myCar" depart="324.00" from="1082516924" to="-97938984#5"/>
    <trip id="325" type="myCar" depart="325.00" from="-239318327#2" to="-1225404797#1"/>
    <trip id="326" type="myCar" depart="326.00" from="794753775#8" to="1137987111"/>
    <trip id="327" type="myCar" depart="327.00" from="4676920#3" to="-807740780#3"/>
    <trip id="328" type="myCar" depart="328.00" from="-1305097092#1" to="202309894#10"/>
    <trip id="329" type="myCar" depart="329.00" from="-1232663943#0" to="-20907801#0"/>
    <trip id="330" type="myCar" depart="330.00" from="1347540738#8" to="-4807887#3"/>
    <trip id="331" type="myCar" depart="331.00" from="974288548#5" to="-162110736#0"/>
    <trip id="332" type="myCar" depart="332.00" from="384972325#0" to="17250404#18"/>
    <trip id="333" type="myCar" depart="333.00" from="4377411#0" to="-35279399#0"/>
    <trip id="334" type="myCar" depart="334.00" from="124457029#14" to="1030509820#0"/>
    <trip id="335" type="myCar" depart="335.00" from="-954825653#4" to="50831851#0"/>
    <trip id="336" type="myCar" depart="336.00" from="958182829#4" to="-4850071#8"/>
    <trip id="337" type="myCar" depart="337.00" from="176963165#0" to="17442540#12"/>
    <trip id="338" type="myCar" depart="338.00" from="364161323#0" to="8072830"/>
    <trip id="339" type="myCar" depart="339.00" from="-280940210#4" to="-298768185#1"/>
    <trip id="340" type="myCar" depart="340.00" from="23040941#2" to="-217350948"/>
    <trip id="341" type="myCar" depart="341.00" from="-23267858#9" to="-131640700#6"/>
    <trip id="342" type="myCar" depart="342.00" from="-1013344909" to="1030509819#1"/>
    <trip id="343" type="myCar" depart="343.00" from="156167921#10" to="-4643388#1"/>
    <trip id="344" type="myCar" depart="344.00" from="-361380084" to="284374554#1"/>
    <trip id="345" type="myCar" depart="345.00" from="272757941" to="104501773#2"/>
    <trip id="346" type="myCar" depart="346.00" from="24607819#4" to="73086576#3"/>