<?xml version="1.0" encoding="UTF-8"?>

<!-- generated on 2025-05-16 16:00:04.216010 by randomTrips.py v1_22_0+0002-63e50f52594
<configuration>
    <net-file value="simulation_files/map.net.xml"/>
    <additional-files value="static_files/vehicle_types.xml"/>
    <output-trip-file value="simulation_files/traffic.trips.xml"/>
    <validate value="True"/>
    <end value="28800.0"/>
    <insertion-rate value="2000.0"/>
</configuration>
-->

<!-- generated on 2025-05-16 15:55:52 by Eclipse SUMO duarouter Version 1.22.0
<duarouterConfiguration xmlns:xsi="http://www.w3.org/2001/XMLSchema-instance" xsi:noNamespaceSchemaLocation="http://sumo.dlr.de/xsd/duarouterConfiguration.xsd">

    <input>
        <net-file value="simulation_files/map.net.xml"/>
        <additional-files value="static_files/vehicle_types.xml"/>
        <route-files value="simulation_files/traffic.trips.xml"/>
    </input>

    <output>
        <output-file value="simulation_files/traffic.trips.xml.tmp"/>
        <alternatives-output value="NUL"/>
        <write-trips value="true"/>
    </output>

    <time>
        <begin value="0.0"/>
        <end value="28800.0"/>
    </time>

    <report>
        <no-warnings value="true"/>
        <ignore-errors value="true"/>
        <no-step-log value="true"/>
    </report>

</duarouterConfiguration>
-->

<routes xmlns:xsi="http://www.w3.org/2001/XMLSchema-instance" xsi:noNamespaceSchemaLocation="http://sumo.dlr.de/xsd/routes_file.xsd">
    <trip id="0" depart="0.00" from="172640998#1" to="-1119706537#1"/>
    <trip id="1" depart="1.80" from="-38788862" to="-25867132#5"/>
    <trip id="2" depart="3.60" from="280700213" to="219653054#4"/>
    <trip id="3" depart="5.40" from="5768903#2" to="-132993739#1"/>
    <trip id="4" depart="7.20" from="-843528253#13" to="-1130865666#3"/>
    <trip id="5" depart="9.00" from="-24708911#0" to="1169016142#2"/>
    <trip id="6" depart="10.80" from="-1120359527#13" to="-23049666#2"/>
    <trip id="7" depart="12.60" from="183425347#0" to="1288653554#2"/>
    <trip id="8" depart="14.40" from="-253667904#1" to="148951147#1"/>
    <trip id="9" depart="16.20" from="4378193#0" to="-1041917993#1"/>
    <trip id="10" depart="18.00" from="4369621#0" to="23698054#6"/>
    <trip id="11" depart="19.80" from="-50831832#13" to="-175711908#5"/>
    <trip id="12" depart="21.60" from="841057246#1" to="-50831832#1"/>
    <trip id="13" depart="23.40" from="-1339500784#2" to="-1365277983"/>
    <trip id="14" depart="25.20" from="4854558#2" to="154762993#2"/>
    <trip id="15" depart="27.00" from="4372138#0" to="279722477#0"/>
    <trip id="16" depart="28.80" from="124457029#10" to="892407464#0"/>
    <trip id="17" depart="30.60" from="-671817460#7" to="129800320#0"/>
    <trip id="18" depart="32.40" from="4573030#11" to="161641524#0"/>
    <trip id="19" depart="34.20" from="5009973#9" to="1369709656#0"/>
    <trip id="20" depart="36.00" from="23692318#20" to="-1180981777"/>
    <trip id="21" depart="37.80" from="-26791156" to="-4382569#1"/>
    <trip id="22" depart="39.60" from="-129800317#0" to="-282866125#12"/>
    <trip id="23" depart="41.40" from="-1375578294#0" to="-40791501#1"/>
    <trip id="24" depart="43.20" from="168527680#1" to="-60979983#10"/>
    <trip id="25" depart="45.00" from="-625463435#3" to="-23909877#1"/>
    <trip id="26" depart="46.80" from="-37792175#7" to="794760159#1"/>
    <trip id="27" depart="48.60" from="177370073#8" to="157716503#8"/>
    <trip id="28" depart="50.40" from="-19738982#5" to="278193376#0"/>
    <trip id="29" depart="52.20" from="-187893561#0" to="-712138723"/>
    <trip id="30" depart="54.00" from="954825653#8" to="175711904#1"/>
    <trip id="31" depart="55.80" from="129716762#5" to="228336647#14"/>
    <trip id="32" depart="57.60" from="479499053#3" to="37976647#0"/>
    <trip id="33" depart="59.40" from="-27023996#4" to="-114012081#0"/>
    <trip id="34" depart="61.20" from="-472382644" to="-38310200#4"/>
    <trip id="35" depart="63.00" from="-239337330" to="804297200"/>
    <trip id="36" depart="64.80" from="522866707#11" to="-4762095#19"/>
    <trip id="37" depart="66.60" from="189172973#5" to="-789003180"/>
    <trip id="38" depart="68.40" from="712138725" to="102660688#11"/>
    <trip id="39" depart="70.20" from="-376387276#5" to="-335906053"/>
    <trip id="40" depart="72.00" from="1305576464#0" to="-376387276#7"/>
    <trip id="41" depart="73.80" from="1377258920#7" to="63863645#0"/>
    <trip id="42" depart="75.60" from="-785320531#6" to="-253667908"/>
    <trip id="43" depart="77.40" from="98775961#6" to="1178639385#1"/>
    <trip id="44" depart="79.20" from="-133721803" to="-1184626825#0"/>
    <trip id="45" depart="81.00" from="-147293151#2" to="166674460#0"/>
    <trip id="46" depart="82.80" from="39896066" to="-85826971#7"/>
    <trip id="47" depart="84.60" from="-124457029#3" to="-72407308#4"/>
    <trip id="48" depart="86.40" from="97938546#8" to="123809459#4"/>
    <trip id="49" depart="88.20" from="8792254#5" to="5072882#6"/>
    <trip id="50" depart="90.00" from="-1066169273#1" to="26458567#2"/>
    <trip id="51" depart="91.80" from="218571966#4" to="126549149#55"/>
    <trip id="52" depart="93.60" from="-37792175#10" to="17705087#8"/>
    <trip id="53" depart="95.40" from="-150076829#3" to="-89959411"/>
    <trip id="54" depart="97.20" from="-9620648#28" to="829683527"/>
    <trip id="55" depart="99.00" from="522848924#0" to="-37647859#7"/>
    <trip id="56" depart="100.80" from="114012073#7" to="-210219467#6"/>
    <trip id="57" depart="102.60" from="69970715#3" to="51690716#2"/>
    <trip id="58" depart="104.40" from="-44277751#3" to="17503972#0"/>
    <trip id="59" depart="106.20" from="154763871#3" to="-17456629#10"/>
    <trip id="60" depart="108.00" from="356646942#0" to="127964549#3"/>
    <trip id="61" depart="109.80" from="37770955#2" to="124436337"/>
    <trip id="62" depart="111.60" from="-1006308526#0" to="-4930227#3"/>
    <trip id="63" depart="113.40" from="-1093414183#3" to="77938460#2"/>
    <trip id="64" depart="115.20" from="528717308#5" to="4708826#5"/>
    <trip id="65" depart="117.00" from="-45278096#26" to="-1227543110#12"/>
    <trip id="66" depart="118.80" from="528048426#2" to="809601544#4"/>
    <trip id="67" depart="120.60" from="-131827878#7" to="1117713696#2"/>
    <trip id="68" depart="122.40" from="-1270970341" to="364481750#1"/>
    <trip id="69" depart="124.20" from="364472500#0" to="-159090919#2"/>
    <trip id="70" depart="126.00" from="1069691155#2" to="129591476#1"/>
    <trip id="71" depart="127.80" from="-376387295" to="522866686#1"/>
    <trip id="72" depart="129.60" from="-845748718#8" to="-240657400#3"/>
    <trip id="73" depart="131.40" from="124990867#1" to="279722477#9"/>
    <trip id="74" depart="133.20" from="-231523147#1" to="-4717134#2"/>
    <trip id="75" depart="135.00" from="974922628#7" to="190544263#21"/>
    <trip id="76" depart="136.80" from="-892407464#0" to="1197313846#1"/>
    <trip id="77" depart="138.60" from="-153688219#1" to="-26458126#1"/>
    <trip id="78" depart="140.40" from="-5016525#18" to="146939027#0"/>
    <trip id="79" depart="142.20" from="-274825775#1" to="-253675830#5"/>
    <trip id="80" depart="144.00" from="-128219734#9" to="171529688#2"/>
    <trip id="81" depart="145.80" from="-27021839#2" to="671817460#2"/>
    <trip id="82" depart="147.60" from="5004413#13" to="-1286838927#2"/>
    <trip id="83" depart="149.40" from="-29205503#2" to="21364969#6"/>
    <trip id="84" depart="151.20" from="-24326883#1" to="-159837681#0"/>
    <trip id="85" depart="153.00" from="790556918#1" to="1351155442#3"/>
    <trip id="86" depart="154.80" from="1059375573#2" to="390213911#0"/>
    <trip id="87" depart="156.60" from="4372677#1" to="-220440625"/>
    <trip id="88" depart="158.40" from="-135702884#14" to="-89037758#10"/>
    <trip id="89" depart="160.20" from="-848330869#2" to="1065049397"/>
    <trip id="90" depart="162.00" from="26748019#0" to="217799714#1"/>
    <trip id="91" depart="163.80" from="93590060#0" to="-137449288#8"/>
    <trip id="92" depart="165.60" from="-791299201#0" to="-5094782#0"/>
    <trip id="93" depart="167.40" from="5009973#7" to="-345937861#7"/>
    <trip id="94" depart="169.20" from="-220204688#1" to="-96760919#13"/>
    <trip id="95" depart="171.00" from="-843528253#1" to="-41169759#13"/>
    <trip id="96" depart="172.80" from="-34569252" to="755686004#2"/>
    <trip id="97" depart="174.60" from="-910359450#1" to="50831831#17"/>
    <trip id="98" depart="176.40" from="128857060#9" to="-119032701#2"/>
    <trip id="99" depart="178.20" from="995533298#0" to="4762141#2"/>
    <trip id="100" depart="180.00" from="87199980#3" to="766101500#0"/>
    <trip id="101" depart="181.80" from="486841562#7" to="-192504806#2"/>
    <trip id="102" depart="183.60" from="1101572329#0" to="-24537281#7"/>
    <trip id="103" depart="185.40" from="-790296474#1" to="-1232663943#0"/>
    <trip id="104" depart="187.20" from="-674053770#0" to="943633178"/>
    <trip id="105" depart="189.00" from="-37647852#2" to="38884580#2"/>
    <trip id="106" depart="190.80" from="-963704513" to="-860064362#4"/>
    <trip id="107" depart="192.60" from="841388990#11" to="976552563#0"/>
    <trip id="108" depart="194.40" from="129591476#2" to="25867097#4"/>
    <trip id="109" depart="196.20" from="-17456633#5" to="-4448352#2"/>
    <trip id="110" depart="198.00" from="870328739#2" to="1376954621#0"/>
    <trip id="111" depart="199.80" from="126549146#1" to="33414899#1"/>
    <trip id="112" depart="201.60" from="-1213007502#1" to="142161056#4"/>
    <trip id="113" depart="203.40" from="114958248#7" to="4960180#6"/>
    <trip id="114" depart="205.20" from="-176921440#10" to="85811014#17"/>
    <trip id="115" depart="207.00" from="-129814120#3" to="-217952899#1"/>
    <trip id="116" depart="208.80" from="150039659#0" to="218722719#0"/>
    <trip id="117" depart="210.60" from="-283005738#6" to="-154331402#1"/>
    <trip id="118" depart="212.40" from="5737372#0" to="-33477077#2"/>
    <trip id="119" depart="214.20" from="149108156#2" to="161857078#8"/>
    <trip id="120" depart="216.00" from="-82511969#1" to="141469618#2"/>
    <trip id="121" depart="217.80" from="1194033655" to="792097265#0"/>
    <trip id="122" depart="219.60" from="-23373328#3" to="256535662#5"/>
    <trip id="123" depart="221.40" from="-297919620#2" to="-789185903#1"/>
    <trip id="124" depart="223.20" from="20907742#2" to="-44731129#2"/>
    <trip id="125" depart="225.00" from="-4744684#2" to="34831613#0"/>
    <trip id="126" depart="226.80" from="-128683078#0" to="1023725459#0"/>
    <trip id="127" depart="228.60" from="990169834" to="97938984#3"/>
    <trip id="128" depart="230.40" from="-1288161114#0" to="-24326883#2"/>
    <trip id="129" depart="232.20" from="-37647852#2" to="791166813#5"/>
    <trip id="130" depart="234.00" from="540848847#4" to="54563016"/>
    <trip id="131" depart="235.80" from="-61560243#1" to="-181620437#1"/>
    <trip id="132" depart="237.60" from="4676919#7" to="240208380#0"/>
    <trip id="133" depart="239.40" from="156253778#0" to="945963874"/>
    <trip id="134" depart="241.20" from="188354438" to="-1053138349#4"/>
    <trip id="135" depart="243.00" from="4420545#7" to="-4473058#27"/>
    <trip id="136" depart="244.80" from="19795339#1" to="7979390#1"/>
    <trip id="137" depart="246.60" from="-159964057#5" to="-153130829#3"/>
    <trip id="138" depart="248.40" from="-145485411" to="1300169179#1"/>
    <trip id="139" depart="250.20" from="-38705762#0" to="154976800#0"/>
    <trip id="140" depart="252.00" from="24707840#0" to="-23373336#13"/>
    <trip id="141" depart="253.80" from="166885060#1" to="-37707144"/>
    <trip id="142" depart="255.60" from="1112063486#2" to="671817460#11"/>
    <trip id="143" depart="257.40" from="4853255#5" to="-1346893753#1"/>
    <trip id="144" depart="259.20" from="-8477182#6" to="-40221753#0"/>
    <trip id="145" depart="261.00" from="-1027701633#3" to="37647859#14"/>
    <trip id="146" depart="262.80" from="170479316#9" to="-374812174#2"/>
    <trip id="147" depart="264.60" from="28901127#0" to="129800300#1"/>
    <trip id="148" depart="266.40" from="-85826980#4" to="-1062050064#1"/>
    <trip id="149" depart="268.20" from="-129129353#8" to="55608090#7"/>
    <trip id="150" depart="270.00" from="649745180" to="1290154786#8"/>
    <trip id="151" depart="271.80" from="4685552#0" to="139040210#4"/>
    <trip id="152" depart="273.60" from="-169620080#4" to="-158209667"/>
    <trip id="153" depart="275.40" from="-4539604#1" to="64417230#2"/>
    <trip id="154" depart="277.20" from="41169761#23" to="5072882#13"/>
    <trip id="155" depart="279.00" from="62263536#0" to="-239253724#8"/>
    <trip id="156" depart="280.80" from="-34407380#7" to="-142161056#6"/>
    <trip id="157" depart="282.60" from="37850961#26" to="5608231#4"/>
    <trip id="158" depart="284.40" from="-796387532#2" to="162520072"/>
    <trip id="159" depart="286.20" from="-17456631#16" to="785320536#0"/>
    <trip id="160" depart="288.00" from="5072882#2" to="90274300#3"/>
    <trip id="161" depart="289.80" from="4389904#4" to="54930294#5"/>
    <trip id="162" depart="291.60" from="-1115774376#4" to="29214772"/>
    <trip id="163" depart="293.40" from="-494418295#4" to="789003175#0"/>
    <trip id="164" depart="295.20" from="42790925#1" to="5094774#10"/>
    <trip id="165" depart="297.00" from="4389904#3" to="-380535198#0"/>
    <trip id="166" depart="298.80" from="38788120#8" to="-150039669#0"/>
    <trip id="167" depart="300.60" from="513341633" to="5016519#3"/>
    <trip id="168" depart="302.40" from="-25698430#1" to="4472860#0"/>
    <trip id="169" depart="304.20" from="-98784633#2" to="-45453312#6"/>
    <trip id="170" depart="306.00" from="408556203#3" to="-27021839#4"/>
    <trip id="171" depart="307.80" from="-1112745743#1" to="-223368670#48"/>
    <trip id="172" depart="309.60" from="-4930295#19" to="5094779#4"/>
    <trip id="173" depart="311.40" from="86484367#2" to="-41213115#2"/>
    <trip id="174" depart="313.20" from="17442520#2" to="-792164784#0"/>
    <trip id="175" depart="315.00" from="91758814#3" to="126549145#2"/>
    <trip id="176" depart="316.80" from="794760161" to="-153087067#0"/>
    <trip id="177" depart="318.60" from="876288967" to="-210219466#9"/>
    <trip id="178" depart="320.40" from="85810999#4" to="-37850957#37"/>
    <trip id="179" depart="322.20" from="-145656963" to="-89954256#14"/>
    <trip id="180" depart="324.00" from="267107296#1" to="-4756574#4"/>
    <trip id="181" depart="325.80" from="154071165#6" to="1182331682#0"/>
    <trip id="182" depart="327.60" from="-721744553#1" to="136553988#5"/>
    <trip id="183" depart="329.40" from="-356758272#7" to="24579653#5"/>
    <trip id="184" depart="331.20" from="-1011263103#1" to="762072093#3"/>
    <trip id="185" depart="333.00" from="124713393#16" to="259455866#1"/>
    <trip id="186" depart="334.80" from="29056802#7" to="216618642#1"/>
    <trip id="187" depart="336.60" from="-585950969#1" to="-128478855#11"/>
    <trip id="188" depart="338.40" from="198622844#0" to="-497384996#1"/>
    <trip id="189" depart="340.20" from="-4685554#1" to="4930348#0"/>
    <trip id="190" depart="342.00" from="24725119#3" to="-44885343#4"/>
    <trip id="191" depart="343.80" from="-4573030#9" to="-8083368#11"/>
    <trip id="192" depart="345.60" from="-791147775#1" to="-4444378#2"/>
    <trip id="193" depart="347.40" from="-157166380#1" to="-8570927#2"/>
    <trip id="194" depart="349.20" from="796387534#0" to="220091266#10"/>
    <trip id="195" depart="351.00" from="646840028#10" to="160160384#4"/>
    <trip id="196" depart="352.80" from="-4470652#1" to="1292917700#1"/>
    <trip id="197" depart="354.60" from="-1004445883#3" to="-4367296#5"/>
    <trip id="198" depart="356.40" from="-86434809#1" to="1382094885"/>
    <trip id="199" depart="358.20" from="188902205#1" to="1059374633#1"/>
    <trip id="200" depart="360.00" from="-906335252#0" to="-24520768#3"/>
    <trip id="201" depart="361.80" from="106176935#6" to="65004569#24"/>
    <trip id="202" depart="363.60" from="41169761#14" to="-19738944#4"/>
    <trip id="205" depart="369.00" from="44451026#2" to="34571089#2"/>
    <trip id="206" depart="370.80" from="210220067#3" to="-26458067#6"/>
    <trip id="207" depart="372.60" from="-23040941#1" to="-1117417369"/>
    <trip id="208" depart="374.40" from="-324694441#3" to="1086798676#1"/>
    <trip id="209" depart="376.20" from="4886705#0" to="-128857915#11"/>
    <trip id="210" depart="378.00" from="-809601544#13" to="169684276#11"/>
    <trip id="211" depart="379.80" from="-223782901#2" to="23594927#3"/>
    <trip id="212" depart="381.60" from="1123093863#0" to="-326057081#7"/>
    <trip id="213" depart="383.40" from="190477476#20" to="-103894827#3"/>
    <trip id="214" depart="385.20" from="324694439#0" to="376387297#1"/>
    <trip id="215" depart="387.00" from="-145218986#1" to="-86484367#6"/>
    <trip id="216" depart="388.80" from="-201565016#1" to="851209441#3"/>
    <trip id="217" depart="390.60" from="1183735281" to="-119029908#2"/>
    <trip id="218" depart="392.40" from="-34176535#1" to="4936422#14"/>
    <trip id="219" depart="394.20" from="-972507126#4" to="4368965#0"/>
    <trip id="220" depart="396.00" from="20026443#0" to="948284227#0"/>
    <trip id="221" depart="397.80" from="150039679#0" to="815709099#0"/>
    <trip id="222" depart="399.60" from="5768394#13" to="159834651#5"/>
    <trip id="223" depart="401.40" from="24724924#0" to="1167950687#3"/>
    <trip id="224" depart="403.20" from="4588048#2" to="129146527#5"/>
    <trip id="225" depart="405.00" from="608502811#22" to="321662375#0"/>
    <trip id="226" depart="406.80" from="1066095434#2" to="-36890918#0"/>
    <trip id="227" depart="408.60" from="-33362976#4" to="17456631#5"/>
    <trip id="228" depart="410.40" from="364468924#5" to="1212988393#1"/>
    <trip id="229" depart="412.20" from="162287017#5" to="-395293989#1"/>
    <trip id="230" depart="414.00" from="-129507749#4" to="-435061498#3"/>
    <trip id="231" depart="415.80" from="-38690333#2" to="-4850434#4"/>
    <trip id="232" depart="417.60" from="1254672907#0" to="-162384063#6"/>
    <trip id="233" depart="419.40" from="-277166723#1" to="23373333#0"/>
    <trip id="234" depart="421.20" from="23781796#0" to="-1252323013#1"/>
    <trip id="235" depart="423.00" from="-7979390#6" to="128683078#0"/>
    <trip id="236" depart="424.80" from="-81162565#2" to="-23704332#2"/>
    <trip id="238" depart="428.40" from="1376128971#3" to="23587126#0"/>
    <trip id="239" depart="430.20" from="496106632#0" to="36965025#14"/>
    <trip id="240" depart="432.00" from="-682732828#2" to="-103966359#1"/>
    <trip id="241" depart="433.80" from="-53773427#5" to="35029168#0"/>
    <trip id="242" depart="435.60" from="493682372#0" to="827130772#8"/>
    <trip id="243" depart="437.40" from="-82221010#3" to="330480881#2"/>
    <trip id="244" depart="439.20" from="128245798#1" to="154333913#4"/>
    <trip id="245" depart="441.00" from="-253672233#4" to="-253672538#1"/>
    <trip id="246" depart="442.80" from="-884058048#3" to="-112876887#6"/>
    <trip id="247" depart="444.60" from="-5006956#1" to="220572769"/>
    <trip id="248" depart="446.40" from="-792130300#3" to="-19069542#13"/>
    <trip id="249" depart="448.20" from="1031678905#1" to="-158305156#2"/>
    <trip id="250" depart="450.00" from="160171217#1" to="-1126182936#2"/>
    <trip id="251" depart="451.80" from="-755685898#1" to="133104712#1"/>
    <trip id="252" depart="453.60" from="-1122943779#11" to="182216386#0"/>
    <trip id="253" depart="455.40" from="-160397134#5" to="103925201#0"/>
    <trip id="254" depart="457.20" from="-1188907645#0" to="-711128200#0"/>
    <trip id="255" depart="459.00" from="-24008909#2" to="-493682385#6"/>
    <trip id="256" depart="460.80" from="354322895#0" to="-711128200#1"/>
    <trip id="257" depart="462.60" from="327117250#0" to="47145432#0"/>
    <trip id="258" depart="464.40" from="-35065100#0" to="-131285083#1"/>
    <trip id="259" depart="466.20" from="-1093414178#2" to="127964549#7"/>
    <trip id="260" depart="468.00" from="99892079#0" to="-543910441#4"/>
    <trip id="261" depart="469.80" from="183562293" to="38785151#5"/>
    <trip id="262" depart="471.60" from="185036842#6" to="35269498"/>
    <trip id="263" depart="473.40" from="809677249#4" to="-23064940#10"/>
    <trip id="264" depart="475.20" from="-1096784378#1" to="-17456620#1"/>
    <trip id="265" depart="477.00" from="-156251314#5" to="215530979#4"/>
    <trip id="266" depart="478.80" from="131616550#4" to="-24724955#3"/>
    <trip id="267" depart="480.60" from="23267869#6" to="372703000#0"/>
    <trip id="268" depart="482.40" from="-192706045#8" to="156463068#1"/>
    <trip id="269" depart="484.20" from="309391892#7" to="-152375999#2"/>
    <trip id="270" depart="486.00" from="4451020#0" to="86484364#4"/>
    <trip id="272" depart="489.60" from="-464616390#1" to="220091266#4"/>
    <trip id="273" depart="491.40" from="843528255#11" to="-790359731"/>
    <trip id="274" depart="493.20" from="245451145#7" to="-1296325604#1"/>
    <trip id="275" depart="495.00" from="225432889#1" to="166130514#0"/>
    <trip id="276" depart="496.80" from="-138293740#4" to="377438958#0"/>
    <trip id="277" depart="498.60" from="490099076" to="153688159#1"/>
    <trip id="278" depart="500.40" from="-153688222#2" to="93639040#9"/>
    <trip id="279" depart="502.20" from="383288806#0" to="-531257161#1"/>
    <trip id="280" depart="504.00" from="-860064362#4" to="-65004569#48"/>
    <trip id="281" depart="505.80" from="1158493570" to="-512383617#0"/>
    <trip id="282" depart="507.60" from="4886703#3" to="4514538#5"/>
    <trip id="283" depart="509.40" from="-143058648#0" to="85811014#17"/>
    <trip id="284" depart="511.20" from="168448566#4" to="4660587#6"/>
    <trip id="285" depart="513.00" from="238868636#29" to="-90515868#0"/>
    <trip id="286" depart="514.80" from="277166723#15" to="86552883#1"/>
    <trip id="287" depart="516.60" from="-383288806#1" to="43945956#4"/>
    <trip id="288" depart="518.40" from="124713385#14" to="1115336868#2"/>
    <trip id="289" depart="520.20" from="-88357241#1" to="28161252#5"/>
    <trip id="290" depart="522.00" from="-37945832#0" to="494418295#4"/>
    <trip id="291" depart="523.80" from="4588050#4" to="-1329195523#1"/>
    <trip id="292" depart="525.60" from="54374974#2" to="-326057054#0"/>
    <trip id="293" depart="527.40" from="1013598470#0" to="158305139#0"/>
    <trip id="294" depart="529.20" from="-674053770#1" to="-1127997765#0"/>
    <trip id="295" depart="531.00" from="4930227#1" to="-215818297#0"/>
    <trip id="296" depart="532.80" from="-240331262#2" to="42790923#3"/>
    <trip id="297" depart="534.60" from="-50831832#2" to="548069947#5"/>
    <trip id="298" depart="536.40" from="23391299#5" to="-40008768#2"/>
    <trip id="299" depart="538.20" from="-106221769#0" to="810173401#4"/>
    <trip id="300" depart="540.00" from="-131827878#1" to="26281858#0"/>
    <trip id="301" depart="541.80" from="1112302589#0" to="361380071#0"/>
    <trip id="302" depart="543.60" from="225432889#1" to="185077176#0"/>
    <trip id="303" depart="545.40" from="1117260118" to="41596605"/>
    <trip id="304" depart="547.20" from="-1339863837#1" to="-25707661#0"/>
    <trip id="305" depart="549.00" from="228336647#12" to="-45817526#1"/>
    <trip id="306" depart="550.80" from="136441217#14" to="1082517534#4"/>
    <trip id="307" depart="552.60" from="122617137#2" to="-86484370#8"/>
    <trip id="308" depart="554.40" from="301767065#0" to="-4994927#7"/>
    <trip id="309" depart="556.20" from="23589596#3" to="-38785156#1"/>
    <trip id="310" depart="558.00" from="-34890094#4" to="-154762992#2"/>
    <trip id="311" depart="559.80" from="-222142615#2" to="-154331372#0"/>
    <trip id="312" depart="561.60" from="124436333#0" to="366280583#1"/>
    <trip id="313" depart="563.40" from="-217425860#1" to="-24708160#1"/>
    <trip id="314" depart="565.20" from="1094088084#0" to="27077629#7"/>
    <trip id="315" depart="567.00" from="897170934#0" to="1224387916#0"/>
    <trip id="316" depart="568.80" from="-415476674#1" to="-138558255#2"/>
    <trip id="317" depart="570.60" from="-223520686#0" to="-27021839#1"/>
    <trip id="318" depart="572.40" from="-210219466#2" to="-1076155241#1"/>
    <trip id="319" depart="574.20" from="123537353#4" to="-39235479#1"/>
    <trip id="320" depart="576.00" from="89148814#2" to="1300894377#2"/>
    <trip id="321" depart="577.80" from="231950009#0" to="-157716505#0"/>
    <trip id="322" depart="579.60" from="5094782#6" to="1128000015"/>
    <trip id="323" depart="581.40" from="5150688#4" to="1357886911#0"/>
    <trip id="324" depart="583.20" from="103966362#1" to="-935023223#1"/>
    <trip id="325" depart="585.00" from="-217284663#4" to="-1195107689#2"/>
    <trip id="326" depart="586.80" from="7979181#0" to="1094088091"/>
    <trip id="327" depart="588.60" from="4473058#33" to="-794753775#2"/>
    <trip id="328" depart="590.40" from="-128856585#0" to="168542235"/>
    <trip id="329" depart="592.20" from="-1196888959#1" to="-172598793#2"/>
    <trip id="330" depart="594.00" from="131109390#0" to="-4524846#8"/>
    <trip id="331" depart="595.80" from="972789463" to="-153790574#2"/>
    <trip id="332" depart="597.60" from="361874140#4" to="156167921#19"/>
    <trip id="333" depart="599.40" from="395750065#0" to="-266437164#0"/>
    <trip id="334" depart="601.20" from="1193565921-AddedOffRampEdge" to="-974922628#4"/>
    <trip id="335" depart="603.00" from="-909928690#0" to="50492959#8"/>
    <trip id="336" depart="604.80" from="958807853#0" to="-4552573#4"/>
    <trip id="337" depart="606.60" from="159964057#6" to="157896046#1"/>
    <trip id="338" depart="608.40" from="28723369#0" to="81012500#7"/>
    <trip id="339" depart="610.20" from="-23724861#2" to="-240168585#0"/>
    <trip id="340" depart="612.00" from="195105425" to="-17705128#0"/>
    <trip id="341" depart="613.80" from="-20009892#15" to="-129453520#3"/>
    <trip id="342" depart="615.60" from="-1014942374#3" to="-974922628#4"/>
    <trip id="343" depart="617.40" from="147498100" to="-43945924#1"/>
    <trip id="344" depart="619.20" from="-277166723#7" to="24326882#3"/>
    <trip id="345" depart="621.00" from="23592935#8" to="-993832884#2"/>
    <trip id="346" depart="622.80" from="221697107#0" to="757234671#4"/>
    <trip id="347" depart="624.60" from="38788129#4" to="163962379#4"/>
    <trip id="348" depart="626.40" from="197197465#2" to="791299201#5"/>
    <trip id="349" depart="628.20" from="-8555435#3" to="128857910#0"/>
    <trip id="350" depart="630.00" from="17705116#4" to="688147396#0"/>
    <trip id="351" depart="631.80" from="4515169#4" to="-1287566910#0"/>
    <trip id="352" depart="633.60" from="-190614049#1" to="-4637689#11"/>
    <trip id="353" depart="635.40" from="315310073#1" to="134361658#3"/>
    <trip id="354" depart="637.20" from="-430989858#6" to="-157166380#1"/>
    <trip id="355" depart="639.00" from="223368670#46" to="23803613#0"/>
    <trip id="356" depart="640.80" from="7979631#2" to="1159132993"/>
    <trip id="357" depart="642.60" from="1122038808#2" to="-130483936#8"/>
    <trip id="358" depart="644.40" from="-1162105154#2" to="-89206799#2"/>
    <trip id="359" depart="646.20" from="-4849726#2" to="-35041451#3"/>
    <trip id="360" depart="648.00" from="-133753878#4" to="85826979#0"/>
    <trip id="361" depart="649.80" from="4713380#1" to="1362685263"/>
    <trip id="362" depart="651.60" from="8112115#0" to="996081003"/>
    <trip id="363" depart="653.40" from="20911016" to="-38703766#2"/>
    <trip id="364" depart="655.20" from="-1163416550#1" to="35567781#0"/>
    <trip id="365" depart="657.00" from="1047640878#0" to="191079984#4"/>
    <trip id="366" depart="658.80" from="722220357" to="-215318781#0"/>
    <trip id="367" depart="660.60" from="138293740#6" to="174246409#1"/>
    <trip id="368" depart="662.40" from="1117665593" to="-134152994#0"/>
    <trip id="369" depart="664.20" from="-521375863#34" to="-5009970#7"/>
    <trip id="370" depart="666.00" from="206253048" to="5009973#4"/>
    <trip id="371" depart="667.80" from="-493682350#0" to="23344428"/>
    <trip id="372" depart="669.60" from="-42880294#4" to="8083245#13"/>
    <trip id="373" depart="671.40" from="43967207#5" to="1296325604#7"/>
    <trip id="374" depart="673.20" from="-963500369#1" to="-4762091#7"/>
    <trip id="375" depart="675.00" from="-4853258#3" to="8797924#1"/>
    <trip id="376" depart="676.80" from="-792109366#0" to="1188914020#2"/>
    <trip id="377" depart="678.60" from="946158271#0" to="198622844#0"/>
    <trip id="378" depart="680.40" from="126549149#3" to="-818748643"/>
    <trip id="379" depart="682.20" from="-218616518#2" to="-60151757#4"/>
    <trip id="380" depart="684.00" from="342687745#1" to="163962383#5"/>
    <trip id="381" depart="685.80" from="35068632#2" to="-23373336#1"/>
    <trip id="382" depart="687.60" from="1288161116#0" to="77119054#2"/>
    <trip id="383" depart="689.40" from="-892407464#1" to="23704094#2"/>
    <trip id="384" depart="691.20" from="-154071165#2" to="892407464#2"/>
    <trip id="385" depart="693.00" from="154763012" to="-30231803#1"/>
    <trip id="386" depart="694.80" from="-17705118#1" to="129716761#0"/>
    <trip id="387" depart="696.60" from="129137334#14" to="-135243643"/>
    <trip id="388" depart="698.40" from="96425159#0" to="72139828#0"/>
    <trip id="389" depart="700.20" from="-990945162" to="-153688159#5"/>
    <trip id="390" depart="702.00" from="4643388#13" to="115660128"/>
    <trip id="391" depart="703.80" from="24647334#0" to="1177345717#5"/>
    <trip id="392" depart="705.60" from="-38785160#1" to="475833816#3"/>
    <trip id="393" depart="707.40" from="91302917#36" to="-325432898#0"/>
    <trip id="394" depart="709.20" from="128911721#1" to="-726135768#0"/>
    <trip id="395" depart="711.00" from="7322733#14" to="1176000176#8"/>