<?xml version="1.0" encoding="UTF-8"?>

<!-- generated on 2025-05-16 15:18:06 by Eclipse SUMO duarouter Version 1.22.0
<duarouterConfiguration xmlns:xsi="http://www.w3.org/2001/XMLSchema-instance" xsi:noNamespaceSchemaLocation="http://sumo.dlr.de/xsd/duarouterConfiguration.xsd">

    <input>
        <net-file value="simulation_files/map.net.xml"/>
        <route-files value="experiments/experiment_13_3/courier.trips.xml"/>
    </input>

    <output>
        <output-file value="experiments/experiment_13_3/courier.rou.xml"/>
    </output>

    <report>
        <verbose value="true"/>
    </report>

</duarouterConfiguration>
-->

<routes xmlns:xsi="http://www.w3.org/2001/XMLSchema-instance" xsi:noNamespaceSchemaLocation="http://sumo.dlr.de/xsd/routes_file.xsd">
    <vType id="myCourier" maxSpeed="160.00" vClass="delivery"/>
    <vehicle id="courier_0" type="myCourier" depart="0.00">
        <route edges="-908811053 -908811054#0 -24649912#3 -24649912#2 -24649912#1 -24649912#0 974288555#0 974288555#1 -133721316#14 -133721316#13 -133721316#12 -133721316#11 -133721316#9 -133721316#8 -133721316#5 -133721316#3 -133721316#2 -133721316#1 -810605035#9 -810605035#7 -810605035#6 -810605035#5 -810605035#4 -810605035#3 -810605035#1 -810605035#0 -789003167#13 -789003167#12 -789003167#11 -789003167#10 -789003167#9 -789003167#8 -789003167#7 -789003167#6 -789003167#5 -789003167#4 -789003167#3 -789003167#1 -789003167#0 -829683526#2 -829683526#0 844700191#0 892363665 -892363665 -844700191#0 56315958#0 892363667 -892363667 -56315958#0 792130302#11 829683526#1 -4473058#65 -4473058#63 -4473058#61 -4473058#58 -4473058#57 -4473058#56 -792130300#10 -792130300#8 -792130300#6 -792130300#5 -792130300#4 -792130300#3 24708713#0 24708713#1 -1056263235 1056263235 -24708713#1 -24708713#0 792130300#3 792130300#4 792130300#5 792130300#6 792130300#8 792130300#9 -4473058#55 -4473058#54 -4473058#52 -4473058#51 -4473058#48 -4473058#45 -4473058#44 -4473058#43 -4473058#40 -4473058#39 -4473058#38 -4473058#37 -4473058#36 -4473058#35 -4473058#33 -4473058#32 -4473058#30 -4473058#29 -4473058#28 -4473058#27 -4473058#26 -4473058#25 -4473058#24 -4473058#23 -4473058#22 -4473058#21 -4473058#20 -4473058#19 -4473058#18 -4473058#17 -4473058#16 -4473058#15 -4473058#12 -4473058#11 -4473058#10 -4473058#6 -4473058#4 -4473058#1 -276984325#0 -54357965#13 -54357965#12 -54357965#10 -54357965#9 -54357965#8 -54357965#6 -54357965#5 -54357965#4 -54357965#2 -54357965#1 132684568#9 132684568#10 132684568#11 132684568#12 132684568#13 132684568#14 132684568#15 132684568#17 132684568#18 132684568#19 132684568#20 891050264#0 891050264#2 891050264#3 891050264#5 891050264#6 282920367#0 282920367#1 -282920362#1 -4398659#26 -4398659#25 -4398659#23 -4398659#22 -4398659#19 -4398659#18 -4398659#16 -4398659#15 -4398659#14 54930287#0 54930287#2 54930287#3 54930287#4 54930287#5 54930287#6 54930287#7 54930287#8 54930287#10 54930287#11 54930287#13 -4660587#7 -4660587#6 -4660587#5 -4660587#4 -1060828882 1060828882 -4660587#3 -4660587#2 -4660587#1 -4660587#0 -4853254#8 -4853254#6 -4853254#5 -4853254#4 -4853254#1 -891050267 1335041825#0 4676917#0 4676917#1 4676917#2 4676917#3 4676917#4 4676917#5 4676917#7 4676917#8 4676917#9 4676917#10 4676917#11 142109132#0 441293054#0 441293054#1 441293054#2 441293054#4 441293054#5 441293054#6 441293054#8 86383731#0 86383731#2 86383731#3 86383731#4 5768394#0 5768394#2 10699928#0 10699928#2 90456739#0 90456742#0 90456742#1 -90456742#1 -90456742#0 -90456739#0 -10699928#3 -10699928#1 -5768394#3 -5768394#1 -86383731#4 -86383731#3 -86383731#2 -86383731#1 86383736#0 86383736#2 86383736#3 86383736#5 86383736#7 86383736#8 86383736#9 86383736#10 86383736#11 86383736#12 86383736#13 86383736#14 86383736#15 86383736#16 86383736#17 86383736#18 86383735#0 86383735#2 86383735#3 86383735#4 86383735#5 86383735#6 86383735#7 86383735#9 86383735#11 86383735#12 86383735#13 165726547#0 165726547#2 165726547#3 165726547#4 165726547#7 165726547#9 65010196#0 65010196#1 65010196#2 65010196#3 65010196#4 65010196#6 65010196#7 27660223 76964834#0 76964834#1 76964834#2 76964834#3 76964834#4 76964834#5 76964834#7 76964834#8 184319045#0 184319045#1 184319045#3 76964839#0 76964839#1 1180456367 -1111206649 76964839#2 76964839#3 248983450#0 19848676#4 19848676#5 19848676#6 245451145#0 245451145#1 245451145#2 245451145#3 245451145#4 245451145#5 245451145#6 245451145#7 245451145#8 245451145#9 245451145#10 245451145#12 245451145#13 -429166139#1 1359319825 1359319824#0 126049635#0 511781907 126052505 511780859 126049636#0 761850575 126049646#0 157075042 -190613744#19 -1166317574#2 -132549303#5 -153146981#12 -153146981#10 -153146981#9 -153146981#6 -153146981#1 -153146981#0 153146981#0 153146981#1 153146981#2 153146981#7 153146981#10 153146981#11 132549303#5 1166317574#0 190613744#19 -157075042 126049647#0 429166142 511779682 126049633 239315459 240529737 28450686 -28450685#2 35041451#0 25788999#0 25788999#2 25789003#0 25789003#1 25789003#2 25789003#3 25789003#4 25789003#5 25789003#6 25789003#7 -636535730 -25789003#6 -25789003#5 -25789003#4 -25789003#3 -25789003#2 -25789003#1 -25789003#0 -25788999#2 -25788999#1 -35041451#0 28450685#0 28450689 130442119 429166133 126047905 28539058 117062366 37728040 511776440 511776439 397259419 1009738204 1009738203 1009738202 1288653556#2 825483377#0 825483377#1 825483377#2 825483377#3 825955791#0 429166134#0 429166134#2 -60334585#9 -60334585#7 -60334585#6 -60334585#5 -60334585#4 429166134#6 429166134#7 429166134#9 429166134#10 -96275075#2 585690443#11 585690443#13 36826508#0 -144932769#21 -144932769#18 144932732#0 144932732#3 -8797884#3 -8797884#1 36826508#6 36826508#7 36826508#10 36826508#12 36826508#13 126549149#0 126549149#2 126549149#3 126549149#4 126549149#5 126549149#6 126549149#7 126549149#8 126549149#10 126549149#11 126549149#12 126549149#13 126549149#15 126549149#16 126549149#17 126549149#19 126549149#20 126549149#22 126549149#23 126549149#25 126549149#26 126549149#27 126549149#29 126549149#30 126549149#31 -1144915478#1 217538716#12 126549149#32 126549149#34 126549149#35 126549149#36 126549149#37 126549149#39 126549149#41 126549149#42 126549149#44 126549149#45 126549149#47 126549149#50 126549149#54 126549149#55 126549149#56 126549149#57 126549149#58 126549149#60 126549149#61 126549149#63 126549149#65 126549149#66 126549149#68 126549149#69 126549149#70 126549149#71 367788700#0 367788700#3 367788700#4 367788700#5 367788700#6 367788701#0 367788701#1 367788701#2 367788701#4 23910347#0 23910347#2 23910347#3 374921929#8 374921929#9 1288653554#0 1288653554#2 1288653554#3 1288653554#4 1288653554#6 585690443#0 1339500783#13 1339500783#14 1288653557#4 1288653557#5 1288653557#6 87575592#0 87575592#3 87575592#7 87575610 87575592#13 -87575591 -87575592#6 -87575592#1 1288653557#7 1288653557#8 822297674#0 822297674#2 822297674#3 822297674#5 822297674#6 822297674#7 822297674#8 822297674#10 1384289862#0 1218096422 1278158164 1278153406#0 1329488202#0 1329488202#2 1329488202#3 1329488202#4 1329488205#1 374921930#0 374921930#2 374921930#3 374921930#4 374921930#5 374921930#6 374921930#7 374921930#9 374921930#10 374921930#11 374921930#12 374921930#13 374921930#14 374921930#16 374921930#17 374921930#18 374921930#19 374921930#20 374921930#21 374921930#22 374921930#23 242406282#0 242406282#1 242406282#2 242406282#3 242406282#4 242406282#5 242406282#6 152286299#0 152286299#2 152286299#3 152286299#4 -152286291#1 -152286291#0 -217284459#0 -103893157#10 -103893157#9 -103893157#7 -153688235 -218257882#1 -218257882#0 969813592#1 -218255556#28 -218255556#27 -218255556#21 -218255556#19 -218255556#17 -218255556#15 -218255556#14 -218255556#13 -218255556#12 -218255556#11 -218255556#9 -218255556#8 -218255556#7 -218255556#6 -218255556#5 -218255556#4 -218255556#2 -218255556#1 -43992430#31 -43992430#29 -43992430#27 -43992430#26 -43992430#25 -43992430#24 -124457040 217482628#4 124457027 -43992430#21 -150855016 217482880#1 217482880#2 124457043 -43992430#14 -150854970 -153234013#5 -153234013#4 124457031 43992430#10 124457048 -124457029#11 -124457029#10 -124457029#9 -124457029#8 150854999 43992430#19 43992430#21 150855003 -124457029#5 -150855042#2 -150855042#1 -150855042#0 217286621#1 217286621#2 217286628 -217286593#1 -114012073#5 -114012073#4 -114012073#3 -114012073#2 -114012073#1 -114012073#0 -217187993#0 -150854689 -103893151#1 124338807#0 124338807#1 380542180 -380542180 124338807#2 -124420950#0 150854691#7 150854691#8 150854691#9 150854691#10 150854691#12 152286291#0 152286291#1 -152286299#4 -152286299#3 -152286299#2 -152286299#1 1086798676#0 1086798676#1 1086798676#2 1086798676#3 822157374 380542183#0 380542183#1 380542183#2 372583632#0 372583632#1 372583632#2 372583632#3 372583632#4 372583632#6 372583632#7 372583632#8 372583632#9 -137268469#1 8662983#1 1245256628 -1245256628 -8662983#1 965766447 372583632#11 1355639987#0 1355639987#1 1329488204#0 -1329488203#2 -364739273#14 -364739273#13 -364739273#11 -364739273#9 -364739273#8 -364739273#6 -364739273#5 -364739273#4 -364739273#3 -364739273#2 -364739273#1 -1338705631#2 -1338705631#1 -1338705631#0 -1127747666 -128478853#8 -128478853#7 -128478853#3 -128478853#2 -128478853#1 -493682426#9 -493682426#6 -493682426#5 -493682426#4 -493682426#3 -493682426#2 -493682426#1 -493682426#0 -281533076#3 -281533076#0 -1296335960#2 -1296335960#1 25698330#0 897170932#0 -897170932#1 -25698330#0 1296335959 688227943#0 897170933 -897170933 -688227943#0 -1296335959 25698330#0 25698330#1 25698330#2 25698330#3 25698330#4 25698330#5 25698330#7 297919620#0 297919620#1 297919620#2 297919620#3 297919618#0 297919618#2 297919615#0 183596934#0 183596934#2 297919619#0 183593439#0 183593439#2 183593439#3 183593439#4 183593439#5 183593439#6 183593439#7 183593439#8 183593439#9 183593439#11 183593439#15 183593439#17 183593439#18 183593439#19 183593439#20 183593439#21 223938179#0 223938179#2 223938179#3 223938179#5 223938179#6 223938179#7 44733634#0 1302031503 154256130#1 691377754 691377753#0 691380824 691377749#0 123154510#0 876288973 190279324#0 152768333#0 152768333#1 876288974 876288975 -876288978#1 -641953000#6 -641953000#5 -641953000#2 -641953000#1 -641953000#0 -24063413#1 -876288982 -876288981 -876288980 -876288979 -650198087 -650198085 17505017#0 17505017#2 -711623187#15 -711623187#13 -711623187#12 -711623187#11 1102727576#0 -1120298404#6 1120298405#0 1120298406#0 1120298407#0 1120298407#2 1120298407#3 1120298407#4 -641890635#1 1102733686 1102733687#0 171297634#0 171297634#1 168034393#0 168034393#1 172063362 158670956#0 158670956#2 158670956#3 158670956#6 158670956#8 1354636739#0 43945954#0 240331256 1112561420#0 1112561615#0 1112561615#2 -1283252670#1 -1338592963 -1363587515 -217952899#6 -217952899#5 1143678868#1 4374986#0 -27460320#2 27460320#1 4374986#2 4374986#3 4374986#4 4374986#5 4374986#6 4374986#7 4374986#9 4374986#10 4374986#11 1175407669#0 129146516#0 129146516#2 129146516#3 129146516#4 129146516#5 206539537#0 141330998#0 141330998#2 129146512#0 129146512#2 129146512#4 129146512#5 1183715125#0 174141629#0 511791593 74307580 168967788 511790417 116981274 160947894 160947890 28743756 1009727597 241026318 240657405 1097668783#0 1213263824#0 -974288548#12 -974288548#11 -974288548#10 -974288548#8 -974288548#7 -974288548#5 -974288548#4 -974288548#3 -974288548#2 -974288548#1 -1305097092#4 -1305097092#3 -1305097092#1 -1305097092#0 1305097093#0 -238868636#33 -1127704797#1 10698402#3 10698402#4 10698402#6 10698402#8 10698402#9 38331253#0 38331253#2 38331253#3 38331253#4 38331253#5 -23909988#5 -23909988#3 -23909988#2 -1203436405#5 -280940210#6 -280940210#4 -280940210#3 -280940210#2 -280940210#1 27178391#0 280940217#1 280940217#2 361314453#0 361314453#1 123537356 365162145#0-AddedOnRampEdge 365162145#0 365162145#1 365162145#2 27178078 219653054#2 219653054#3 36893383 -123535953#21 -123535953#18 -123535953#16 -123535953#15 -123535953#14 -123535953#13 -123535953#12 -123535953#11 1205242324#1 -1205242324#1 123535953#11 123535953#12 123535953#13 123535953#14 123535953#15 123535953#16 123535953#18 123535953#19 123535941 166130506 280940212#0 280940211 280940217#0 280940217#1 280940217#2 361314453#0 361314453#1 123537356 365162145#0-AddedOnRampEdge 365162145#0 365162145#1 365162145#2 365162145#3 123537346#0 123537346#1 794638915 166127933#0 79480409 123537345 794638914#1 794638914#2 166127932#0 166127932#1 22464691 37707621 4376442 37707622 27133331 406784581 27133503 122479041#0 122479041#1 27133505 27133603 38345603 19885704 50915791 348346524 348346522 348346519 47145433 132397536#0 37713616#0 1117665592 1117665591 1117665590 23016374 52347620#1 197637379#0 -819355479 121334221#0 325384114#0 325384114#1 325384114#2 -325384114#2 -325384114#1 -325384114#0 -121334221#1 -86484366 86484366 819355479 790296473 75601194#0 1117665589 31509769 -277166725#3 -277166725#1 -23908703#7 -23908703#6 -23908703#5 -23908703#3 -23908703#2 -23908703#0 4473058#0 4473058#4 4473058#5 4473058#8 4473058#11 4473058#12 4473058#14 4473058#16 4473058#17 4473058#18 4473058#19 4473058#20 4473058#21 4473058#22 4473058#23 4473058#24 4473058#25 4473058#26 4473058#27 4473058#28 4473058#29 4473058#30 4473058#32 4473058#33 4473058#35 4473058#36 4473058#37 4473058#38 4473058#39 4473058#40 4473058#43 4473058#44 4473058#45 4473058#48 4473058#51 4473058#52 4473058#54 4473058#55 4473058#56 4473058#57 4473058#58 4473058#60 4473058#63 4473058#65 789003167#0 789003167#1 789003167#3 789003167#4 789003167#5 789003167#6 789003167#7 789003167#8 789003167#9 789003167#10 789003167#11 789003167#12 789003167#13 810605035#0 810605035#1 810605035#2 810605035#4 810605035#5 810605035#6 810605035#7 810605035#8 133721316#0 133721316#2 133721316#3 133721316#4 133721316#6 133721316#9 133721316#10 133721316#12 133721316#13 133721316#14 -974288555#1 -974288555#0 24649912#0 24649912#1 24649912#2 24649912#3 908811054#0 908811053 -908811053"/>
        <stop lane="-892363665_0" endPos="0.10" duration="60.00" parking="1"/>
        <stop lane="-892363667_0" endPos="0.10" duration="60.00" parking="1"/>
        <stop lane="1056263235_0" endPos="12.63" duration="60.00" parking="1"/>
        <stop lane="1060828882_0" endPos="0.10" duration="60.00" parking="1"/>
        <stop lane="-90456742#1_0" endPos="56.08" duration="60.00" parking="1"/>
        <stop lane="-1111206649_0" endPos="0.10" duration="60.00" parking="1"/>
        <stop lane="153146981#2_0" endPos="2.47" duration="60.00" parking="1"/>
        <stop lane="-636535730_0" endPos="101.55" duration="60.00" parking="1"/>
        <stop lane="-60334585#4_0" endPos="46.73" duration="60.00" parking="1"/>
        <stop lane="-144932769#18_0" endPos="67.78" duration="60.00" parking="1"/>
        <stop lane="-1144915478#1_0" endPos="30.52" duration="60.00" parking="1"/>
        <stop lane="87575610_0" endPos="134.03" duration="60.00" parking="1"/>
        <stop lane="-153688235_0" endPos="39.65" duration="60.00" parking="1"/>
        <stop lane="-124457040_0" endPos="124.75" duration="60.00" parking="1"/>
        <stop lane="-150855016_0" endPos="106.54" duration="60.00" parking="1"/>
        <stop lane="124457031_0" endPos="20.64" duration="60.00" parking="1"/>
        <stop lane="150854999_0" endPos="43.26" duration="60.00" parking="1"/>
        <stop lane="150855003_0" endPos="160.10" duration="60.00" parking="1"/>
        <stop lane="-380542180_0" endPos="17.44" duration="60.00" parking="1"/>
        <stop lane="1245256628_0" endPos="217.79" duration="60.00" parking="1"/>
        <stop lane="897170933_0" endPos="168.13" duration="60.00" parking="1"/>
        <stop lane="1302031503_0" endPos="300.88" duration="60.00" parking="1"/>
        <stop lane="1102727576#0_0" endPos="125.01" duration="60.00" parking="1"/>
        <stop lane="27460320#1_0" endPos="112.29" duration="60.00" parking="1"/>
        <stop lane="38331253#4_0" endPos="77.18" duration="60.00" parking="1"/>
        <stop lane="1205242324#1_0" endPos="44.00" duration="60.00" parking="1"/>
        <stop lane="-325384114#2_0" endPos="23.75" duration="60.00" parking="1"/>
    </vehicle>
    <vehicle id="courier_1" type="myCourier" depart="0.00">