<?xml version="1.0" encoding="UTF-8"?>

<!-- generated on 2025-05-16 13:12:15 by Eclipse SUMO duarouter Version 1.22.0
<duarouterConfiguration xmlns:xsi="http://www.w3.org/2001/XMLSchema-instance" xsi:noNamespaceSchemaLocation="http://sumo.dlr.de/xsd/duarouterConfiguration.xsd">

    <input>
        <net-file value="simulation_files/map.net.xml"/>
        <route-files value="experiments/experiment_3_1/courier.trips.xml"/>
    </input>

    <output>
        <output-file value="experiments/experiment_3_1/courier.rou.xml"/>
    </output>

</duarouterConfiguration>
-->

<routes xmlns:xsi="http://www.w3.org/2001/XMLSchema-instance" xsi:noNamespaceSchemaLocation="http://sumo.dlr.de/xsd/routes_file.xsd"/>
