<?xml version="1.0" encoding="UTF-8"?>

<!-- generated on 2025-05-16 15:16:24 by Eclipse SUMO duarouter Version 1.22.0
<duarouterConfiguration xmlns:xsi="http://www.w3.org/2001/XMLSchema-instance" xsi:noNamespaceSchemaLocation="http://sumo.dlr.de/xsd/duarouterConfiguration.xsd">

    <input>
        <net-file value="simulation_files/map.net.xml"/>
        <route-files value="experiments/experiment_4_4/courier.trips.xml"/>
    </input>

    <output>
        <output-file value="experiments/experiment_4_4/courier.rou.xml"/>
    </output>

    <report>
        <verbose value="true"/>
    </report>

</duarouterConfiguration>
-->

<routes xmlns:xsi="http://www.w3.org/2001/XMLSchema-instance" xsi:noNamespaceSchemaLocation="http://sumo.dlr.de/xsd/routes_file.xsd">
    <vType id="myCourier" maxSpeed="160.00" vClass="delivery"/>
    <vehicle id="courier_0" type="myCourier" depart="0.00">
        <route edges="-908811053 -908811054#0 -24649912#3 -24649912#2 -24649912#1 -24649912#0 974288555#0 974288555#1 -133721316#14 -133721316#13 -133721316#12 -133721316#11 -133721316#9 -133721316#8 -133721316#5 -133721316#3 -133721316#2 -133721316#1 -810605035#9 -810605035#7 -810605035#6 -810605035#5 -810605035#4 -810605035#3 -810605035#1 -810605035#0 -789003167#13 -789003167#12 -789003167#11 -789003167#10 -789003167#9 -789003167#8 -789003167#7 -789003167#6 -789003167#5 -789003167#4 -789003167#3 -789003167#1 -789003167#0 -829683526#2 -829683526#0 844700191#0 892363665 -892363665 -844700191#0 792130302#11 829683526#1 -4473058#65 -4473058#63 -4473058#61 -4473058#58 -4473058#57 -4473058#56 -4473058#55 -4473058#54 -4473058#52 -4473058#51 -4473058#48 -4473058#45 -4473058#44 -4473058#43 -4473058#40 -4473058#39 -4473058#38 -4473058#37 -4473058#36 -4473058#35 -4473058#33 -4473058#32 -4473058#30 -4473058#29 -4473058#28 -4473058#27 -4473058#26 -4473058#25 -4473058#24 -4473058#23 -4473058#22 -4473058#21 -4473058#20 -4473058#19 -4473058#18 -4473058#17 -4473058#16 -4473058#15 -4473058#12 -4473058#11 -4473058#10 -4473058#6 -4473058#4 -4473058#1 -276984325#0 -54357965#13 -54357965#12 -54357965#10 -54357965#9 -54357965#8 -54357965#6 -54357965#5 -54357965#4 -54357965#2 -54357965#1 132684568#9 132684568#10 132684568#11 132684568#12 132684568#13 132684568#14 132684568#15 132684568#17 132684568#18 132684568#19 132684568#20 891050264#0 891050264#2 891050264#3 891050264#5 891050264#6 282920367#0 282920367#1 -282920362#1 -4398659#26 -4398659#25 -4398659#23 -4398659#22 -4398659#19 -4398659#18 -4398659#16 -4398659#15 -4398659#14 54930287#0 54930287#2 54930287#3 54930287#4 54930287#5 54930287#6 54930287#7 54930287#8 54930287#10 54930287#11 54930287#13 -4660587#7 -4660587#6 -4660587#5 -4660587#4 -1060828882 1060828882 -4660587#3 -4660587#2 -4660587#1 -4660587#0 -4853254#8 -4853254#6 -4853254#5 -4853254#4 -4853254#1 -891050267 1335041825#0 4676917#0 4676917#1 4676917#2 4676917#3 4676917#4 4676917#5 4676917#7 4676917#8 4676917#9 4676917#10 4676917#11 142109132#0 441293054#0 441293054#1 441293054#2 441293054#4 441293054#5 441293054#6 441293054#8 86383731#0 86383731#2 86383731#3 86383731#4 5768394#0 5768394#2 10699928#0 10699928#2 90456739#0 90456742#0 90456742#1 -90456742#1 -90456742#0 -90456739#0 -10699928#3 -10699928#1 -5768394#3 -5768394#1 -86383731#4 -86383731#3 -86383731#2 -86383731#1 86383736#0 86383736#2 86383736#3 86383736#5 86383736#7 86383736#8 86383736#9 86383736#10 86383736#11 86383736#12 86383736#13 86383736#14 86383736#15 86383736#16 86383736#17 86383736#18 86383735#0 86383735#2 86383735#3 86383735#4 86383735#5 86383735#6 86383735#7 86383735#9 86383735#11 86383735#12 86383735#13 165726547#0 165726547#2 165726547#3 165726547#4 165726547#7 165726547#9 65010196#0 65010196#1 65010196#2 65010196#3 65010196#4 65010196#6 65010196#7 27660223 76964834#0 76964834#1 76964834#2 76964834#3 76964834#4 76964834#5 76964834#7 76964834#8 184319045#0 184319045#1 184319045#3 76964839#0 76964839#1 1180456367 -1111206649 76964839#2 76964839#3 248983450#0 19848676#4 19848676#5 19848676#6 245451145#0 245451145#1 245451145#2 245451145#3 245451145#4 245451145#5 245451145#6 245451145#7 245451145#8 245451145#9 245451145#10 245451145#12 245451145#13 -429166139#1 1359319825 1359319824#0 126049635#0 511781907 126052505 511780859 126049636#0 761850575 126049646#0 157075042 -190613744#19 -1166317574#2 -132549303#5 -153146981#12 -153146981#10 -153146981#9 -153146981#6 -153146981#1 -153146981#0 153146981#0 153146981#1 153146981#2 153146981#7 153146981#10 153146981#11 132549303#5 1166317574#0 190613744#19 -157075042 126049647#0 429166142 511779682 126049633 239315459 240529737 130442120 130442119 429166133 126047905 28539058 117062366 37728040 511776440 511776439 397259419 1009738204 1009738203 1009738202 1288653556#2 825483377#0 825483377#1 825483377#2 825483377#3 825955791#0 429166134#0 429166134#2 -60334585#9 -60334585#7 -60334585#6 -60334585#5 -60334585#4 429166134#6 429166134#7 429166134#9 429166134#10 -96275075#2 585690443#11 585690443#13 36826508#0 -144932769#21 -144932769#18 -144932769#14 -144932769#2 585690443#17 429166134#0 429166134#2 429166134#3 429166134#5 429166134#6 429166134#7 429166134#9 429166134#10 429166134#12 1339500783#0 1339500783#1 1339500783#2 1339500783#7 1339500783#8 1339500783#9 1339500783#11 1339500783#13 1339500783#14 1288653557#4 1288653557#5 1288653557#6 87575592#0 87575592#3 87575592#7 87575610 87575592#13 -87575591 -87575592#6 -87575592#1 1288653557#7 1288653557#8 822297674#0 822297674#2 822297674#3 822297674#5 822297674#6 822297674#7 822297674#8 822297674#10 1384289862#0 1218096422 1278158164 1278153406#0 1329488202#0 1329488202#2 1329488202#3 1329488202#4 1329488205#1 374921930#0 374921930#2 374921930#3 374921930#4 374921930#5 374921930#6 374921930#7 374921930#9 374921930#10 374921930#11 374921930#12 374921930#13 374921930#14 374921930#16 374921930#17 374921930#18 374921930#19 374921930#20 374921930#21 374921930#22 374921930#23 242406282#0 242406282#1 242406282#2 242406282#3 242406282#4 242406282#5 242406282#6 152286299#0 152286299#2 152286299#3 152286299#4 -152286291#1 -152286291#0 -217284459#0 -103893157#10 -103893157#9 -103893157#7 -153688235 -218257882#1 -218257882#0 969813592#1 -218255556#28 -218255556#27 -218255556#21 -218255556#19 -218255556#17 -218255556#15 -218255556#14 -218255556#13 -218255556#12 -218255556#11 -218255556#9 -218255556#8 -218255556#7 -218255556#6 -218255556#5 -218255556#4 -218255556#2 -218255556#1 -43992430#31 -43992430#29 -43992430#27 -43992430#26 -43992430#25 -43992430#24 -124457040 217482628#4 124457027 -43992430#21 -150855016 217482880#1 217482880#2 124457043 -43992430#14 -150854970 -153234013#5 -153234013#4 124457031 43992430#10 124457048 -124457029#11 -124457029#10 -124457029#9 -124457029#8 150854999 43992430#19 43992430#21 150855003 -124457029#5 -150855042#2 -150855042#1 -150855042#0 217286621#1 217286621#2 217286628 -217286593#1 -114012073#5 -114012073#4 -114012073#3 -114012073#2 -114012073#1 -114012073#0 -217187993#0 -150854689 -103893151#1 124338807#0 124338807#1 380542180 -380542180 124338807#2 -124420950#0 150854691#7 150854691#8 150854691#9 150854691#10 150854691#12 152286291#0 152286291#1 -152286299#4 -152286299#3 -152286299#2 -152286299#1 1086798676#0 1086798676#1 1086798676#2 1086798676#3 822157374 380542183#0 380542183#1 380542183#2 372583632#0 372583632#1 372583632#2 372583632#3 372583632#4 372583632#6 372583632#7 372583632#8 372583632#9 -137268469#1 8662983#1 1245256628 -1245256628 -8662983#1 965766447 372583632#11 1355639987#0 1355639987#1 1329488204#0 -1329488203#2 -364739273#14 -364739273#13 -364739273#11 -364739273#9 -364739273#8 -364739273#6 -364739273#5 -364739273#4 -364739273#3 -364739273#2 -364739273#1 -1338705631#2 -1338705631#1 -1338705631#0 -1127747666 -128478853#8 -128478853#7 -128478853#3 -128478853#2 -128478853#1 -493682426#9 -493682426#6 -493682426#5 -493682426#4 -493682426#3 -493682426#2 -493682426#1 -493682426#0 -281533076#3 -281533076#0 -1296335960#2 -1296335960#1 25698330#0 897170932#0 -897170932#1 -25698330#0 1296335959 688227943#0 897170933 -897170933 -688227943#0 -1296335959 1296335960#0 1296335960#2 281533076#0 281533076#1 493682426#0 493682426#1 493682426#2 493682426#3 493682426#4 493682426#5 493682426#6 493682426#7 128478853#0 128478853#2 128478853#3 128478853#4 29020111 1338705631#0 1338705631#1 1338705631#2 1338705635 364739273#2 364739273#3 364739273#4 364739273#5 364739273#6 364739273#7 364739273#9 364739273#11 364739273#12 364739273#14 1329488203#0 43992437#0 43992437#1 43992437#2 43992437#3 -266437164#12 -266437164#8 -266437164#7 -266437164#4 -266437164#3 -266437164#2 -266437164#0 -1161152331 -1344557827 -1161152333 -762321522#1 -4762568#4 -4762568#3 -4762568#2 -4762568#1 -126549146#9 -126549146#8 -126549146#7 -126549146#6 -126549146#4 -126549146#1 -126549146#0 -280238426#3 -280238426#1 -126549149#72 -126549149#70 -126549149#69 -126549149#68 -126549149#66 -126549149#65 -126549149#63 -126549149#61 -126549149#60 -126549149#58 -126549149#57 -126549149#56 -126549149#55 -126549149#54 -126549149#51 -126549149#47 -126549149#45 -126549149#44 -126549149#42 -126549149#41 -126549149#39 -126549149#37 -126549149#36 -126549149#35 -126549149#34 -126549149#33 -1144915478#1 217538716#12 -126549149#31 -126549149#30 -126549149#29 -126549149#27 -126549149#26 -126549149#25 -126549149#24 -126549149#22 -126549149#20 -126549149#19 -126549149#17 -126549149#16 -126549149#15 -126549149#14 -126549149#12 -126549149#11 -126549149#10 -126549149#8 -126549149#7 -126549149#6 -126549149#5 -126549149#4 -126549149#3 -126549149#2 -126549149#1 -126549150#3 -126549150#1 -240657401#15 -240657401#14 -240657401#13 -240657401#11 -240657401#10 -240657401#8 -240657401#7 -240657401#6 -240657401#5 -240657401#4 -240657401#3 -240657401#1 -476905224 -476905230 91609489#0 91609489#2 91609489#3 91609489#4 91609489#5 160947896#0 1009727597 241026318 28539144 240657404#0 240657404#1 240657407 45278101 116978515 116980863 265039906 22901082#0 219912708#0 219912708#1 219912708#2 219912708#3 219912722 172060619#0 172060619#1 172060619#2 172060619#3 152598683#0 152598683#2 152598683#3 152598683#4 152598683#5 -377963796#1 -111627668#9 111627668#0 377963796#0 152598683#6 152598683#7 152598683#8 152598683#9 152598683#10 1271678861 183593435#0 183593435#2 183593442 297919619#0 183593437 1376128971#0 1376128971#1 1376128971#3 1376128972#0 22901083#0 22901083#1 117716825 219912750#0 219912750#1 219912750#2 275795700 242638637 265039907 26773402 300874147 26773403#0 174137560 1271682160 1175579848#0 22888743#0 22888743#1 22888743#2 174136432#0 174136432#2 174136432#3 174136432#4 174136433#0 174136433#1 174136433#2 174136433#3 396681960 -396681960 -174136433#3 -174136433#2 -174136433#1 -174136433#0 -174136432#6 -174136432#3 -174136432#2 -174136432#1 -22888743#2 -22888743#1 -22888743#0 -1175579848#1 174136418 973953354#0 25698310#0 25698310#1 25698310#2 25698310#3 129146495#0 129146495#2 129146495#3 -23910101#5 -23910101#3 27460320#0 27460320#1 4374986#2 4374986#3 4374986#4 4374986#5 4374986#6 4374986#7 4374986#9 4374986#10 4374986#11 1175407669#0 129146516#0 129146516#2 129146516#3 129146516#4 129146516#5 206539537#0 28169020#0 28169020#2 -1340800647#1 -218722719#3 -218722719#2 -1376717479 1376717479 218722719#2 218722719#3 1340800647#0 -28169020#2 -28169020#1 141330998#0 141330998#2 129146512#0 129146512#2 129146512#4 129146512#5 1183715125#0 174141629#0 511791593 74307580 168967788 511790417 116981274 160947894 160947890 28743756 1009727597 241026318 240657405 1097668783#0 1213263824#0 -974288548#12 -974288548#11 -974288548#10 -974288548#8 -974288548#7 -974288548#5 -974288548#4 -974288548#3 -974288548#2 -974288548#1 -1305097092#4 -1305097092#3 -1305097092#1 -1305097092#0 1305097093#0 -238868636#33 -238868636#32 -238868636#31 -238868636#30 -238868636#29 -238868636#27 -238868636#26 -238868636#25 -238868636#24 -238868636#23 -238868636#21 -238868636#20 -238868636#18 -238868636#16 -238868636#14 -238868636#13 -238868636#12 -238868636#10 -238868636#8 -238868636#7 -238868636#6 -238868636#5 -238868636#4 -238868636#3 -238868636#2 -238868636#1 -238868636#0 23263288#0 23263288#2 23263288#4 23263288#5 23263288#7 23263288#8 23263288#9 23263288#10 23263288#12 23263288#13 156167921#0 156167921#1 156167921#4 156167921#5 156167921#7 212045792#0 -212045792#1 156167921#9 156167921#10 163534649#0 163534649#3 163534649#5 163534649#8 163534649#9 163534649#10 163534649#11 163534649#12 947921777#0 947921776 334834352 -1070769223#2 -1070769223#1 -1070769223#0 -126549145#4 -126549145#2 -126549145#1 -126549145#0 -932979856#3 -932979856#2 -932979856#0 1052331938#0 932979866#0 -132397213 38749145 1303678631#1 -909972361#3 -909972361#0 909972361#0 909972361#1 -1303678631#1 -218722021#2 -218722031#4 -218722031#3 -218722031#1 -123537344#3 -123537344#1 -38749146#5 -38749146#3 -38749146#1 -1311426230#1 -1311426229 -1311426231 -1311426232 -38749143 1091838753#0 826251523#2 276254795#0 276254795#1 310783312 310783315#0-AddedOnRampEdge 310783315#0 310783315#1 310783315#2 799568766#0 1224958208#0 1224958208#1 121782502 1171237521#0 1171237521#1 43945942 43945941 43945940#0 43945940#1 43945940#2 522866708 1132954610 4389323#0 4389323#1 283661642#0 283661642#2 522848928#1 522866739 522866755 522844846#0 -41126177#5 -41126181#5 -41126181#2 -41126181#1 996080478#0 415056978#0 -291929513 30153759#2 276499867#1 44151782#3 996079966#0 996079966#2 529186398#0 529186398#1 529186398#2 1126182939 1126182938 634011451#1 634011451#2 634011451#4 529186399#0 719919221#0 -719919221#4 -529186399#1 26706320#0 29020812 472372809 472372808 472372807 472382644 192685115 799488162 799488161 799488160 799488159#0 448493739#0 448536967 72265692 799488158#0 799488158#1 799488157 106168572 799488156 1117763652 188503276 799488154 799488153 799488152 305994914#0 -713169093#1 -932387717 -932387718 -1093414184 -1093581085#2 -1093581085#0 -305994917#4 -34571089#3 -34571089#1 -34571089#0 -23544932#9 901665312#0 901665312#1 -305994916#0 -5009977#7 305994917#0 1093581085#0 1093581085#1 1093414184 932387718 932387717 713169093#0 810029142 202398570 202398573#0 202398573#2 202398573#3 307756986 -34582346#7 -34582346#3 -34582346#2 -34582346#1 4762142#2 -25867133#1 -25867238#14 173198396#3 173198396#5 173198396#7 173198396#9 173198396#10 25867133#0 25867133#1 -4762142#6 34582346#0 34582346#2 34582346#3 34582346#5 794760160 810173395#0 -23163175#5 -23163175#3 -23163175#2 -23163175#1 -23692318#13 -23692318#12 -23692318#11 -23692318#10 -23692318#9 -23692318#7 -23692318#5 -23692318#4 -23692318#3 -23692318#2 -23692318#0 -86484364#7 -86484364#6 -86484364#5 -86484364#4 -86484364#3 -86484364#2 -86484364#1 -43967203#6 -43967203#5 -43967203#4 -43967203#3 -43967203#2 -43967203#1 -522866677#13 -522866677#10 -522866677#8 -522866677#7 -522866677#6 -522866677#5 -522866677#4 -522866677#3 -522866677#2 -522866677#0 -794760159#1 -794760159#0 -522866676#3 -522866676#2 -522866676#1 -522866676#0 43230452 25750764#5 822332971#0 822332971#1 822332971#2 25788882 23163207#0 23163207#1 23146547#0 23146547#1 1117622080#0 1117622080#1 1117622081#0 1117622081#1 1117622082 1117665632 43973661 118038625 118039173 43973662 154080815 43973664 8072745#0 8072745#1 496106677 496106678 496106674 496106665 496106664 271280747#0 496106635#0 496106635#1 -220197238#3 -220197238#1 -790531107#3 -790531107#1 -4853258#8 -4853258#6 -24649912#4 908811054#0 908811053 -908811053"/>
        <stop lane="-892363665_0" endPos="0.10" duration="60.00" parking="1"/>
        <stop lane="1060828882_0" endPos="0.10" duration="60.00" parking="1"/>
        <stop lane="-90456742#1_0" endPos="56.08" duration="60.00" parking="1"/>
        <stop lane="-1111206649_0" endPos="0.10" duration="60.00" parking="1"/>
        <stop lane="153146981#2_0" endPos="2.47" duration="60.00" parking="1"/>
        <stop lane="-60334585#4_0" endPos="46.73" duration="60.00" parking="1"/>
        <stop lane="-144932769#18_0" endPos="67.78" duration="60.00" parking="1"/>
        <stop lane="87575610_0" endPos="134.03" duration="60.00" parking="1"/>
        <stop lane="-153688235_0" endPos="39.65" duration="60.00" parking="1"/>
        <stop lane="-124457040_0" endPos="124.75" duration="60.00" parking="1"/>
        <stop lane="-150855016_0" endPos="106.54" duration="60.00" parking="1"/>
        <stop lane="124457031_0" endPos="20.64" duration="60.00" parking="1"/>
        <stop lane="150854999_0" endPos="43.26" duration="60.00" parking="1"/>
        <stop lane="150855003_0" endPos="160.10" duration="60.00" parking="1"/>
        <stop lane="-380542180_0" endPos="17.44" duration="60.00" parking="1"/>
        <stop lane="1245256628_0" endPos="217.79" duration="60.00" parking="1"/>
        <stop lane="897170933_0" endPos="168.13" duration="60.00" parking="1"/>
        <stop lane="-1144915478#1_0" endPos="30.52" duration="60.00" parking="1"/>
        <stop lane="-240657401#13_0" endPos="81.24" duration="60.00" parking="1"/>
        <stop lane="377963796#0_0" endPos="98.68" duration="60.00" parking="1"/>
        <stop lane="396681960_0" endPos="5.92" duration="60.00" parking="1"/>
        <stop lane="27460320#1_0" endPos="112.29" duration="60.00" parking="1"/>
        <stop lane="218722719#2_0" endPos="12.81" duration="60.00" parking="1"/>
        <stop lane="-238868636#6_0" endPos="10.51" duration="60.00" parking="1"/>
        <stop lane="212045792#0_0" endPos="4.43" duration="60.00" parking="1"/>
        <stop lane="-909972361#0_0" endPos="15.56" duration="60.00" parking="1"/>
        <stop lane="415056978#0_0" endPos="12.09" duration="60.00" parking="1"/>
        <stop lane="-23544932#9_0" endPos="66.51" duration="60.00" parking="1"/>
        <stop lane="4762142#2_0" endPos="118.98" duration="60.00" parking="1"/>
        <stop lane="173198396#7_0" endPos="10.62" duration="60.00" parking="1"/>
        <stop lane="-522866676#2_0" endPos="14.63" duration="60.00" parking="1"/>
    </vehicle>
    <vehicle id="courier_1" type="myCourier" depart="0.00">